<additional>
   <tlLogic id="1" type="static" programID="my_program" offset="15">

            <phase duration="30" state="grrgGGrgrrrrrrgrrgGGrgrrrrrrrrrrrr"/>
            <phase duration="10" state="grrgGGGgrrrrrrgrrrrrrgrrrrrrrrrrrr"/>
            <phase duration="10" state="grrrrrrgrrrrrrgrrgGGGgrrrrrrrrrrrr"/>
            <phase duration="10" state="grrrrrGgrrgrrrgrrrrrGgrrgrrrrrrrrr"/>
            <phase duration="30" state="grrrrrrgrrgGGrgrrrrrrgrrgGGrrrrrrr"/>
            <phase duration="10" state="grrrrrrgrrrrrrgrrrrrrgrrgGGGrrrrrr"/>
            <phase duration="10" state="grrrrrrgrrgGGGgrrrrrrgrrrrrrrrrrrr"/>
            <phase duration="10" state="grrgrrrgrrrrrGgrrgrrrgrrrrrGrrrrrr"/>
            <phase duration="10" state="gGgrrrrgGgrrrrgGgrrrrgGgrrrrGGGGGG"/>
            <phase duration="5" state="grryyyrgrrrrrrgrryyyrgrrrrrrrrrrrr"/>
            <phase duration="5" state="grryyyygrrrrrrgrrrrrrgrrrrrrrrrrrr"/>
            <phase duration="5" state="grrrrrrgrrrrrrgrryyyygrrrrrrrrrrrr"/>
            <phase duration="5" state="grrrrrygrryrrrgrrrrrygrryrrrrrrrrr"/>
            <phase duration="5" state="grrrrrrgyryyyrgrrrrrrgyryyyrrrrrrr"/>
            <phase duration="5" state="grrrrrrgrrrrrrgrrrrrrgyryyyyrrrrrr"/>
            <phase duration="5" state="grrrrrrgrryyyygrrrrrrgrrrrrrrrrrrr"/>
            <phase duration="5" state="grryrrrgrrrrrygrryrrrgrrrrryrrrrrr"/>
            <phase duration="20" state="rrrrrrrrrrrrrrrrrrrrrrrrrrrrrrrrrr"/>
                
   </tlLogic>
</additional>
