<?xml version="1.0" encoding="UTF-8"?>

<!-- generated on 2025-07-10 10:49:47 by Eclipse SUMO netedit Version 1.22.0
<neteditConfiguration xmlns:xsi="http://www.w3.org/2001/XMLSchema-instance" xsi:noNamespaceSchemaLocation="http://sumo.dlr.de/xsd/neteditConfiguration.xsd">

    <input>
        <sumo-net-file value="/home/naderian/Desktop/Shakiba/MMSVCC/environment/network_model/single_intersection_bike_Concurrent_(permitted_right).net.xml"/>
    </input>

    <output>
        <output-file value="/home/naderian/Desktop/Shakiba/MMSVCC/environment/network_model/single_intersection_bike_Concurrent_(permitted_right).net.xml"/>
    </output>

    <processing>
        <geometry.min-radius.fix.railways value="false"/>
        <geometry.max-grade.fix value="false"/>
        <offset.disable-normalization value="true"/>
        <lefthand value="0"/>
    </processing>

    <junctions>
        <no-internal-links value="false"/>
        <no-turnarounds value="true"/>
        <junctions.corner-detail value="5"/>
        <junctions.limit-turn-speed value="5.50"/>
        <rectangular-lane-cut value="0"/>
    </junctions>

    <pedestrian>
        <walkingareas value="0"/>
    </pedestrian>

</neteditConfiguration>
-->

<net version="1.20" junctionCornerDetail="5" limitTurnSpeed="5.50" xmlns:xsi="http://www.w3.org/2001/XMLSchema-instance" xsi:noNamespaceSchemaLocation="http://sumo.dlr.de/xsd/net_file.xsd">

    <location netOffset="200.00,200.00" convBoundary="0.00,0.00,400.00,400.00" origBoundary="-200.00,-200.00,200.00,200.00" projParameter="!"/>

    <edge id=":1_0" function="internal">
        <lane id=":1_0_0" index="0" allow="bicycle" speed="6.07" length="2.02" width="1.00" shape="188.90,215.10 188.40,213.14"/>
    </edge>
    <edge id=":1_1" function="internal">
        <lane id=":1_1_0" index="0" allow="bicycle" speed="20.00" length="30.52" width="1.00" shape="188.90,215.10 190.34,190.32 192.10,184.90"/>
    </edge>
    <edge id=":1_2" function="internal">
        <lane id=":1_2_0" index="0" allow="bicycle" speed="14.69" length="30.00" width="1.00" shape="189.90,215.10 193.08,187.07 194.81,187.54"/>
    </edge>
    <edge id=":1_3" function="internal">
        <lane id=":1_3_0" index="0" disallow="pedestrian" speed="7.98" length="5.13" shape="192.00,215.10 191.56,210.59 191.33,210.04"/>
    </edge>
    <edge id=":1_4" function="internal">
        <lane id=":1_4_0" index="0" disallow="pedestrian" speed="20.00" length="30.42" shape="192.00,215.10 192.50,206.11 193.60,200.00 194.70,193.89 195.20,184.90"/>
        <lane id=":1_4_1" index="1" disallow="pedestrian" speed="20.00" length="30.42" shape="195.20,215.10 195.70,206.11 196.80,200.00 197.90,193.89 198.40,184.90"/>
    </edge>
    <edge id=":1_6" function="internal">
        <lane id=":1_6_0" index="0" disallow="pedestrian" speed="10.84" length="11.35" shape="198.40,215.10 199.44,207.79 201.49,204.39"/>
    </edge>
    <edge id=":1_28" function="internal">
        <lane id=":1_28_0" index="0" allow="bicycle" speed="6.07" length="6.42" width="1.00" shape="188.40,213.14 188.27,212.63 187.03,210.03 184.90,207.90"/>
    </edge>
    <edge id=":1_29" function="internal">
        <lane id=":1_29_0" index="0" allow="bicycle" speed="14.69" length="21.04" width="1.00" shape="194.81,187.54 215.10,193.10"/>
    </edge>
    <edge id=":1_30" function="internal">
        <lane id=":1_30_0" index="0" disallow="pedestrian" speed="7.98" length="9.00" shape="191.33,210.04 190.22,207.38 188.01,205.44 184.90,204.80"/>
    </edge>
    <edge id=":1_31" function="internal">
        <lane id=":1_31_0" index="0" disallow="pedestrian" speed="10.84" length="15.58" shape="201.49,204.39 202.58,202.57 207.79,199.44 215.10,198.40"/>
    </edge>
    <edge id=":1_7" function="internal">
        <lane id=":1_7_0" index="0" allow="bicycle" speed="6.10" length="1.77" width="1.00" shape="215.10,211.10 213.40,211.60"/>
    </edge>
    <edge id=":1_8" function="internal">
        <lane id=":1_8_0" index="0" allow="bicycle" speed="20.00" length="30.61" width="1.00" shape="215.10,211.10 190.61,210.04 184.90,207.90"/>
    </edge>
    <edge id=":1_9" function="internal">
        <lane id=":1_9_0" index="0" allow="bicycle" speed="14.71" length="30.00" width="1.00" shape="215.10,210.10 186.95,206.87 187.40,205.27"/>
    </edge>
    <edge id=":1_10" function="internal">
        <lane id=":1_10_0" index="0" disallow="pedestrian" speed="7.98" length="5.79" shape="215.10,208.00 210.59,208.44 209.43,208.92"/>
    </edge>
    <edge id=":1_11" function="internal">
        <lane id=":1_11_0" index="0" disallow="pedestrian" speed="20.00" length="30.42" shape="215.10,208.00 206.11,207.50 200.00,206.40 193.89,205.30 184.90,204.80"/>
        <lane id=":1_11_1" index="1" disallow="pedestrian" speed="20.00" length="30.42" shape="215.10,204.80 206.11,204.30 200.00,203.20 193.89,202.10 184.90,201.60"/>
    </edge>
    <edge id=":1_13" function="internal">
        <lane id=":1_13_0" index="0" disallow="pedestrian" speed="10.84" length="7.38" shape="215.10,201.60 207.79,200.56"/>
    </edge>
    <edge id=":1_32" function="internal">
        <lane id=":1_32_0" index="0" allow="bicycle" speed="6.10" length="6.75" width="1.00" shape="213.40,211.60 211.90,212.04 209.59,213.02 207.90,215.10"/>
    </edge>
    <edge id=":1_33" function="internal">
        <lane id=":1_33_0" index="0" allow="bicycle" speed="14.71" length="21.15" width="1.00" shape="187.40,205.27 193.10,184.90"/>
    </edge>
    <edge id=":1_34" function="internal">
        <lane id=":1_34_0" index="0" disallow="pedestrian" speed="7.98" length="8.34" shape="209.43,208.92 207.38,209.78 205.44,211.99 204.80,215.10"/>
    </edge>
    <edge id=":1_35" function="internal">
        <lane id=":1_35_0" index="0" disallow="pedestrian" speed="10.84" length="19.55" shape="207.79,200.56 202.57,197.42 199.44,192.21 198.40,184.90"/>
    </edge>
    <edge id=":1_14" function="internal">
        <lane id=":1_14_0" index="0" allow="bicycle" speed="6.09" length="8.29" width="1.00" shape="211.10,184.90 211.73,187.69 212.95,190.06 214.95,191.96"/>
    </edge>
    <edge id=":1_15" function="internal">
        <lane id=":1_15_0" index="0" allow="bicycle" speed="20.00" length="30.52" width="1.00" shape="211.10,184.90 209.65,209.72 207.90,215.10"/>
    </edge>
    <edge id=":1_16" function="internal">
        <lane id=":1_16_0" index="0" allow="bicycle" speed="14.70" length="30.00" width="1.00" shape="210.10,184.90 206.72,213.09 205.17,212.65"/>
    </edge>
    <edge id=":1_17" function="internal">
        <lane id=":1_17_0" index="0" disallow="pedestrian" speed="7.98" length="5.59" shape="208.00,184.90 208.44,189.41 208.85,190.39"/>
    </edge>
    <edge id=":1_18" function="internal">
        <lane id=":1_18_0" index="0" disallow="pedestrian" speed="20.00" length="30.42" shape="208.00,184.90 207.50,193.89 206.40,200.00 205.30,206.11 204.80,215.10"/>
        <lane id=":1_18_1" index="1" disallow="pedestrian" speed="20.00" length="30.42" shape="204.80,184.90 204.30,193.89 203.20,200.00 202.10,206.11 201.60,215.10"/>
    </edge>
    <edge id=":1_20" function="internal">
        <lane id=":1_20_0" index="0" disallow="pedestrian" speed="10.84" length="23.40" shape="201.60,184.90 200.56,192.21 197.42,197.42 192.21,200.56 188.40,201.10"/>
    </edge>
    <edge id=":1_36" function="internal">
        <lane id=":1_36_0" index="0" allow="bicycle" speed="6.09" length="0.20" width="1.00" shape="214.95,191.96 215.10,192.10"/>
    </edge>
    <edge id=":1_37" function="internal">
        <lane id=":1_37_0" index="0" allow="bicycle" speed="14.70" length="21.07" width="1.00" shape="205.17,212.65 184.90,206.90"/>
    </edge>
    <edge id=":1_38" function="internal">
        <lane id=":1_38_0" index="0" disallow="pedestrian" speed="7.98" length="8.53" shape="208.85,190.39 209.78,192.62 211.99,194.56 215.10,195.20"/>
    </edge>
    <edge id=":1_39" function="internal">
        <lane id=":1_39_0" index="0" disallow="pedestrian" speed="10.84" length="3.54" shape="188.40,201.10 184.90,201.60"/>
    </edge>
    <edge id=":1_21" function="internal">
        <lane id=":1_21_0" index="0" allow="bicycle" speed="6.11" length="2.22" width="1.00" shape="184.90,188.90 187.06,188.40"/>
    </edge>
    <edge id=":1_22" function="internal">
        <lane id=":1_22_0" index="0" allow="bicycle" speed="20.00" length="30.53" width="1.00" shape="184.90,188.90 209.12,190.19 215.10,192.10"/>
    </edge>
    <edge id=":1_23" function="internal">
        <lane id=":1_23_0" index="0" allow="bicycle" speed="14.78" length="30.00" width="1.00" shape="184.90,189.90 213.55,193.26 213.21,194.36"/>
    </edge>
    <edge id=":1_24" function="internal">
        <lane id=":1_24_0" index="0" disallow="pedestrian" speed="7.98" length="5.42" shape="184.90,192.00 189.41,191.56 190.23,191.22"/>
    </edge>
    <edge id=":1_25" function="internal">
        <lane id=":1_25_0" index="0" disallow="pedestrian" speed="20.00" length="30.42" shape="184.90,192.00 193.89,192.50 200.00,193.60 206.11,194.70 215.10,195.20"/>
        <lane id=":1_25_1" index="1" disallow="pedestrian" speed="20.00" length="30.42" shape="184.90,195.20 193.89,195.70 200.00,196.80 206.11,197.90 215.10,198.40"/>
    </edge>
    <edge id=":1_27" function="internal">
        <lane id=":1_27_0" index="0" disallow="pedestrian" speed="10.84" length="7.38" shape="184.90,198.40 192.21,199.44"/>
    </edge>
    <edge id=":1_40" function="internal">
        <lane id=":1_40_0" index="0" allow="bicycle" speed="6.11" length="6.36" width="1.00" shape="187.06,188.40 187.62,188.27 189.68,187.57 192.10,184.90"/>
    </edge>
    <edge id=":1_41" function="internal">
        <lane id=":1_41_0" index="0" allow="bicycle" speed="14.78" length="21.68" width="1.00" shape="213.21,194.36 206.90,215.10"/>
    </edge>
    <edge id=":1_42" function="internal">
        <lane id=":1_42_0" index="0" disallow="pedestrian" speed="7.98" length="8.71" shape="190.23,191.22 192.62,190.22 194.56,188.01 195.20,184.90"/>
    </edge>
    <edge id=":1_43" function="internal">
        <lane id=":1_43_0" index="0" disallow="pedestrian" speed="10.84" length="19.55" shape="192.21,199.44 197.42,202.58 200.56,207.79 201.60,215.10"/>
    </edge>
    <edge id=":1_c0" function="crossing" crossingEdges="1_5 5_1">
        <lane id=":1_c0_0" index="0" allow="pedestrian" speed="2.78" length="20.00" width="3.50" shape="208.40,213.35 188.40,213.35" outlineShape="208.50,215.10 188.30,215.10 188.30,213.05 188.05,211.60 188.40,211.60 208.40,211.60 210.43,212.34 210.08,212.47 209.14,213.16 208.59,214.03"/>
    </edge>
    <edge id=":1_c1" function="crossing" crossingEdges="1_3 3_1 1_4 4_1">
        <lane id=":1_c1_0" index="0" allow="pedestrian" speed="2.78" length="30.94" width="3.50" customShape="1" shape="190.09,188.36 210.19,211.88" outlineShape="191.42,187.22 211.52,210.74 211.78,211.92 211.38,211.99 210.08,212.47 209.14,213.16 209.07,213.27 187.64,188.18 188.62,188.01 189.92,187.53 190.86,186.84"/>
    </edge>
    <edge id=":1_c2" function="crossing" crossingEdges="1_4 4_1">
        <lane id=":1_c2_0" index="0" allow="pedestrian" speed="2.78" length="20.53" width="3.50" customShape="1" shape="213.20,191.38 213.28,211.91" outlineShape="214.95,191.27 215.03,211.90 213.05,211.70 211.53,211.96 211.45,191.39 212.25,189.33 212.47,189.92 213.16,190.86 214.03,191.41"/>
    </edge>
    <edge id=":1_c3" function="crossing" crossingEdges="1_2 2_1 1_3 3_1">
        <lane id=":1_c3_0" index="0" allow="pedestrian" speed="2.78" length="30.59" width="3.50" customShape="1" shape="188.94,209.83 211.74,189.44" outlineShape="187.77,208.53 210.57,188.14 211.86,187.86 211.99,188.62 212.47,189.92 213.01,190.65 188.26,212.79 188.01,211.38 187.53,210.08 186.88,209.19"/>
    </edge>
    <edge id=":1_c4" function="crossing" crossingEdges="1_3 3_1">
        <lane id=":1_c4_0" index="0" allow="pedestrian" speed="2.78" length="20.00" width="3.50" shape="191.60,186.65 211.60,186.65" outlineShape="191.50,184.90 211.70,184.90 211.70,186.95 211.95,188.40 211.60,188.40 191.60,188.40 189.57,187.66 189.92,187.53 190.86,186.84 191.41,185.97"/>
    </edge>
    <edge id=":1_c5" function="crossing" crossingEdges="1_2 2_1">
        <lane id=":1_c5_0" index="0" allow="pedestrian" speed="2.78" length="20.00" width="3.50" shape="186.65,208.40 186.65,188.40" outlineShape="184.90,208.50 184.90,188.30 186.95,188.30 188.40,188.05 188.40,188.40 188.40,208.40 187.66,210.43 187.53,210.08 186.84,209.14 185.97,208.59"/>
    </edge>
    <edge id=":1_w0" function="walkingarea">
        <lane id=":1_w0_0" index="0" allow="pedestrian" speed="2.78" length="4.33" width="3.50" shape="184.90,208.40 184.90,210.40 186.40,215.10 188.40,215.10 188.30,213.05 188.01,211.38 187.53,210.08 186.84,209.14 185.97,208.59"/>
    </edge>
    <edge id=":1_w1" function="walkingarea">
        <lane id=":1_w1_0" index="0" allow="pedestrian" speed="2.78" length="4.07" width="3.50" shape="208.40,215.10 210.40,215.10 215.10,213.60 215.10,211.60 215.03,211.90 213.05,211.70 211.38,211.99 210.08,212.47 209.14,213.16 208.59,214.03"/>
    </edge>
    <edge id=":1_w2" function="walkingarea">
        <lane id=":1_w2_0" index="0" allow="pedestrian" speed="2.78" length="4.05" width="3.50" shape="214.95,191.37 215.10,191.60 215.10,189.60 213.60,184.90 211.60,184.90 211.70,186.95 211.99,188.62 212.47,189.92 213.16,190.86 214.03,191.41"/>
    </edge>
    <edge id=":1_w3" function="walkingarea">
        <lane id=":1_w3_0" index="0" allow="pedestrian" speed="2.78" length="4.20" width="3.50" shape="191.60,184.90 189.60,184.90 184.90,186.40 184.90,188.40 186.95,188.30 188.62,188.01 189.92,187.53 190.86,186.84 191.41,185.97"/>
    </edge>
    <edge id=":2_0" function="internal">
        <lane id=":2_0_0" index="0" disallow="pedestrian" speed="3.65" length="4.67" shape="0.00,201.60 -1.20,200.80 -1.60,200.00 -1.20,199.20 0.00,198.40"/>
    </edge>
    <edge id=":2_w0" function="walkingarea">
        <lane id=":2_w0_0" index="0" allow="pedestrian" speed="2.78" length="22.00" width="2.00" shape="0.00,188.40 0.00,186.40 0.00,210.40 0.00,208.40"/>
    </edge>
    <edge id=":3_0" function="internal">
        <lane id=":3_0_0" index="0" disallow="pedestrian" speed="3.65" length="4.67" shape="198.40,0.00 199.20,-1.20 200.00,-1.60 200.80,-1.20 201.60,0.00"/>
    </edge>
    <edge id=":3_w0" function="walkingarea">
        <lane id=":3_w0_0" index="0" allow="pedestrian" speed="2.78" length="22.00" width="2.00" shape="211.60,0.00 213.60,0.00 189.60,0.00 191.60,0.00"/>
    </edge>
    <edge id=":4_0" function="internal">
        <lane id=":4_0_0" index="0" disallow="pedestrian" speed="3.65" length="4.67" shape="400.00,198.40 401.20,199.20 401.60,200.00 401.20,200.80 400.00,201.60"/>
    </edge>
    <edge id=":4_w0" function="walkingarea">
        <lane id=":4_w0_0" index="0" allow="pedestrian" speed="2.78" length="22.00" width="2.00" shape="400.00,211.60 400.00,213.60 400.00,189.60 400.00,191.60"/>
    </edge>
    <edge id=":5_0" function="internal">
        <lane id=":5_0_0" index="0" disallow="pedestrian" speed="3.65" length="4.67" shape="201.60,400.00 200.80,401.20 200.00,401.60 199.20,401.20 198.40,400.00"/>
    </edge>
    <edge id=":5_w0" function="walkingarea">
        <lane id=":5_w0_0" index="0" allow="pedestrian" speed="2.78" length="22.00" width="2.00" shape="188.40,400.00 186.40,400.00 210.40,400.00 208.40,400.00"/>
    </edge>

    <edge id="1_2" from="1" to="2" priority="10">
        <lane id="1_2_0" index="0" allow="pedestrian" speed="20.00" length="184.90" width="2.00" shape="184.90,209.40 0.00,209.40"/>
        <lane id="1_2_1" index="1" allow="bicycle" speed="20.00" length="184.90" width="1.00" shape="184.90,207.90 0.00,207.90"/>
        <lane id="1_2_2" index="2" allow="bicycle" speed="20.00" length="184.90" width="1.00" shape="184.90,206.90 0.00,206.90"/>
        <lane id="1_2_3" index="3" disallow="pedestrian" speed="20.00" length="184.90" shape="184.90,204.80 0.00,204.80"/>
        <lane id="1_2_4" index="4" disallow="pedestrian" speed="20.00" length="184.90" shape="184.90,201.60 0.00,201.60"/>
    </edge>
    <edge id="1_3" from="1" to="3" priority="10">
        <lane id="1_3_0" index="0" allow="pedestrian" speed="20.00" length="184.90" width="2.00" shape="190.60,184.90 190.60,0.00"/>
        <lane id="1_3_1" index="1" allow="bicycle" speed="20.00" length="184.90" width="1.00" shape="192.10,184.90 192.10,0.00"/>
        <lane id="1_3_2" index="2" allow="bicycle" speed="20.00" length="184.90" width="1.00" shape="193.10,184.90 193.10,0.00"/>
        <lane id="1_3_3" index="3" disallow="pedestrian" speed="20.00" length="184.90" shape="195.20,184.90 195.20,0.00"/>
        <lane id="1_3_4" index="4" disallow="pedestrian" speed="20.00" length="184.90" shape="198.40,184.90 198.40,0.00"/>
    </edge>
    <edge id="1_4" from="1" to="4" priority="10">
        <lane id="1_4_0" index="0" allow="pedestrian" speed="20.00" length="184.90" width="2.00" shape="215.10,190.60 400.00,190.60"/>
        <lane id="1_4_1" index="1" allow="bicycle" speed="20.00" length="184.90" width="1.00" shape="215.10,192.10 400.00,192.10"/>
        <lane id="1_4_2" index="2" allow="bicycle" speed="20.00" length="184.90" width="1.00" shape="215.10,193.10 400.00,193.10"/>
        <lane id="1_4_3" index="3" disallow="pedestrian" speed="20.00" length="184.90" shape="215.10,195.20 400.00,195.20"/>
        <lane id="1_4_4" index="4" disallow="pedestrian" speed="20.00" length="184.90" shape="215.10,198.40 400.00,198.40"/>
    </edge>
    <edge id="1_5" from="1" to="5" priority="10">
        <lane id="1_5_0" index="0" allow="pedestrian" speed="20.00" length="184.90" width="2.00" shape="209.40,215.10 209.40,400.00"/>
        <lane id="1_5_1" index="1" allow="bicycle" speed="20.00" length="184.90" width="1.00" shape="207.90,215.10 207.90,400.00"/>
        <lane id="1_5_2" index="2" allow="bicycle" speed="20.00" length="184.90" width="1.00" shape="206.90,215.10 206.90,400.00"/>
        <lane id="1_5_3" index="3" disallow="pedestrian" speed="20.00" length="184.90" shape="204.80,215.10 204.80,400.00"/>
        <lane id="1_5_4" index="4" disallow="pedestrian" speed="20.00" length="184.90" shape="201.60,215.10 201.60,400.00"/>
    </edge>
    <edge id="2_1" from="2" to="1" priority="10">
        <lane id="2_1_0" index="0" allow="pedestrian" speed="20.00" length="184.90" width="2.00" shape="0.00,187.40 184.90,187.40"/>
        <lane id="2_1_1" index="1" allow="bicycle" speed="20.00" length="184.90" width="1.00" shape="0.00,188.90 184.90,188.90"/>
        <lane id="2_1_2" index="2" allow="bicycle" speed="20.00" length="184.90" width="1.00" shape="0.00,189.90 184.90,189.90"/>
        <lane id="2_1_3" index="3" disallow="pedestrian" speed="20.00" length="184.90" shape="0.00,192.00 184.90,192.00"/>
        <lane id="2_1_4" index="4" disallow="pedestrian" speed="20.00" length="184.90" shape="0.00,195.20 184.90,195.20"/>
        <lane id="2_1_5" index="5" disallow="pedestrian" speed="20.00" length="184.90" shape="0.00,198.40 184.90,198.40"/>
    </edge>
    <edge id="3_1" from="3" to="1" priority="10">
        <lane id="3_1_0" index="0" allow="pedestrian" speed="20.00" length="184.90" width="2.00" shape="212.60,0.00 212.60,184.90"/>
        <lane id="3_1_1" index="1" allow="bicycle" speed="20.00" length="184.90" width="1.00" shape="211.10,0.00 211.10,184.90"/>
        <lane id="3_1_2" index="2" allow="bicycle" speed="20.00" length="184.90" width="1.00" shape="210.10,0.00 210.10,184.90"/>
        <lane id="3_1_3" index="3" disallow="pedestrian" speed="20.00" length="184.90" shape="208.00,0.00 208.00,184.90"/>
        <lane id="3_1_4" index="4" disallow="pedestrian" speed="20.00" length="184.90" shape="204.80,0.00 204.80,184.90"/>
        <lane id="3_1_5" index="5" disallow="pedestrian" speed="20.00" length="184.90" shape="201.60,0.00 201.60,184.90"/>
    </edge>
    <edge id="4_1" from="4" to="1" priority="10">
        <lane id="4_1_0" index="0" allow="pedestrian" speed="20.00" length="184.90" width="2.00" shape="400.00,212.60 215.10,212.60"/>
        <lane id="4_1_1" index="1" allow="bicycle" speed="20.00" length="184.90" width="1.00" shape="400.00,211.10 215.10,211.10"/>
        <lane id="4_1_2" index="2" allow="bicycle" speed="20.00" length="184.90" width="1.00" shape="400.00,210.10 215.10,210.10"/>
        <lane id="4_1_3" index="3" disallow="pedestrian" speed="20.00" length="184.90" shape="400.00,208.00 215.10,208.00"/>
        <lane id="4_1_4" index="4" disallow="pedestrian" speed="20.00" length="184.90" shape="400.00,204.80 215.10,204.80"/>
        <lane id="4_1_5" index="5" disallow="pedestrian" speed="20.00" length="184.90" shape="400.00,201.60 215.10,201.60"/>
    </edge>
    <edge id="5_1" from="5" to="1" priority="10">
        <lane id="5_1_0" index="0" allow="pedestrian" speed="20.00" length="184.90" width="2.00" shape="187.40,400.00 187.40,215.10"/>
        <lane id="5_1_1" index="1" allow="bicycle" speed="20.00" length="184.90" width="1.00" shape="188.90,400.00 188.90,215.10"/>
        <lane id="5_1_2" index="2" allow="bicycle" speed="20.00" length="184.90" width="1.00" shape="189.90,400.00 189.90,215.10"/>
        <lane id="5_1_3" index="3" disallow="pedestrian" speed="20.00" length="184.90" shape="192.00,400.00 192.00,215.10"/>
        <lane id="5_1_4" index="4" disallow="pedestrian" speed="20.00" length="184.90" shape="195.20,400.00 195.20,215.10"/>
        <lane id="5_1_5" index="5" disallow="pedestrian" speed="20.00" length="184.90" shape="198.40,400.00 198.40,215.10"/>
    </edge>

    <tlLogic id="1" type="static" programID="0" offset="0">
        <phase duration="19" state="gGGgGGrgrrrrrrgGGgGGrrrrrrrrrrGrrG"/>
        <phase duration="5"  state="grrrrrGgrrgrrrgrrrrrGrrrgrrrrrrrrr"/>
        <phase duration="5"  state="grrrrrrgGGgGGrgrrrrrrGGGgGGrGrrrGr"/>
        <phase duration="6"  state="grrgrrrgrrrrrGgrrgrrrrrrrrrGrrrrrr"/>
        <phase duration="5"  state="rrrrrrysrrsrrrrrrrrrysrrsrrrrrrrrr"/>
        <phase duration="19" state="srrsrrrgGggGGrsrrsrrrgGggGGrGrrrGr"/>
        <phase duration="5"  state="srrsrrrgGggGGrsrrsrrrgGggGGrrrrrrr"/>
        <phase duration="5"  state="srrsrrryyyyyyrsrrsrrryyyyyyrrrrrrr"/>
        <phase duration="6"  state="srrsrrrrrrrrrGsrrsrrrrrrrrrGrrrrrr"/>
        <phase duration="5"  state="srrsrrrrrrrrrysrrsrrrrrrrrryrrrrrr"/>
        <phase duration="5"  state="rrrrrrrrrrrrrrrrrrrrrrrrrrrrGGGGGG"/>
        <phase duration="5"  state="rrrrrrrrrrrrrrrrrrrrrrrrrrrrrrrrrr"/>
    </tlLogic>

    <junction id="1" type="traffic_light_right_on_red" x="200.00" y="200.00" incLanes="5_1_0 5_1_1 5_1_2 5_1_3 5_1_4 5_1_5 4_1_0 4_1_1 4_1_2 4_1_3 4_1_4 4_1_5 3_1_0 3_1_1 3_1_2 3_1_3 3_1_4 3_1_5 2_1_0 2_1_1 2_1_2 2_1_3 2_1_4 2_1_5 :1_w1_0 :1_w3_0 :1_w2_0 :1_w0_0" intLanes=":1_28_0 :1_1_0 :1_29_0 :1_30_0 :1_4_0 :1_4_1 :1_31_0 :1_32_0 :1_8_0 :1_33_0 :1_34_0 :1_11_0 :1_11_1 :1_35_0 :1_36_0 :1_15_0 :1_37_0 :1_38_0 :1_18_0 :1_18_1 :1_39_0 :1_40_0 :1_22_0 :1_41_0 :1_42_0 :1_25_0 :1_25_1 :1_43_0 :1_c0_0 :1_c1_0 :1_c2_0 :1_c3_0 :1_c4_0 :1_c5_0" shape="186.40,215.10 210.40,215.10 210.92,214.27 211.58,213.97 212.49,213.77 213.66,213.64 215.10,213.60 215.10,189.60 214.27,189.08 213.97,188.42 213.77,187.51 213.64,186.34 213.60,184.90 189.60,184.90 189.08,185.73 188.42,186.03 187.51,186.23 186.34,186.36 184.90,186.40 184.90,210.40 185.73,210.92 186.03,211.58 186.23,212.49 186.36,213.66">
        <request index="0"  response="1010010000000000000001100100000000" foes="1010010000000000000000000100000000" cont="1"/>
        <request index="1"  response="0110111001101100010000000000000000" foes="0110111111111100010001100100001000" cont="0"/>
        <request index="2"  response="0001111000100011101010001000110000" foes="0001111110100111111011101100111000" cont="1"/>
        <request index="3"  response="1010010000000000010001100100000110" foes="1010010000000000010001100100000110" cont="1"/>
        <request index="4"  response="0110111001100100010010001000000000" foes="0110111111110100010011101100000100" cont="0"/>
        <request index="5"  response="0110111001100100010010001000000000" foes="0110111111110100010011101100000100" cont="0"/>
        <request index="6"  response="0001111000100011001010001000000000" foes="0001111110100011011011101100000000" cont="1"/>
        <request index="7"  response="0001110000000000001000000000000000" foes="0001110000000000001000000000000000" cont="1"/>
        <request index="8"  response="1011100000000011001000000001111111" foes="1011101000100011001000010001111111" cont="0"/>
        <request index="9"  response="0111100111010111011001100001110100" foes="0111101111110111011001110001110100" cont="1"/>
        <request index="10" response="0001110000000011001000001100000000" foes="0001110000100011001000001100000000" cont="1"/>
        <request index="11" response="1011100000000111011000000001111110" foes="1011101000100111011000001001111110" cont="0"/>
        <request index="12" response="1011100000000111011000000001111110" foes="1011101000100111011000001001111110" cont="0"/>
        <request index="13" response="0111100110010111011000000001110100" foes="0111100110110111011000000001110100" cont="1"/>
        <request index="14" response="0111100110010000000000000000000000" foes="0111100000010000000000000000000000" cont="1"/>
        <request index="15" response="0110110000000000000010001001000100" foes="0110110110010000100011111111000100" cont="0"/>
        <request index="16" response="1110101000100011000010001001111110" foes="1110101110110011100011101001111110" cont="1"/>
        <request index="17" response="0111100110010000011000000000000100" foes="0111100110010000011000000000000100" cont="1"/>
        <request index="18" response="0110111000100000000010001001000100" foes="0110111110110000010011111101000100" cont="0"/>
        <request index="19" response="0110111000100000000010001001000100" foes="0110111110110000010011111101000100" cont="0"/>
        <request index="20" response="1110101000100000000010001000110110" foes="1110101110110000000011101000110110" cont="1"/>
        <request index="21" response="1110100000000000000000000000000010" foes="1110100000000000000000000000000010" cont="1"/>
        <request index="22" response="1011100000000111111100000000110010" foes="1011100001000111111110001000110010" cont="0"/>
        <request index="23" response="1010010110000111010011111101110110" foes="1010010111000111010011111101110110" cont="1"/>
        <request index="24" response="1110100000110000000000000000110010" foes="1110100000110000000000001000110010" cont="1"/>
        <request index="25" response="1011100000000111111000000001110110" foes="1011100000100111111010001001110110" cont="0"/>
        <request index="26" response="1011100000000111111000000001110110" foes="1011100000100111111010001001110110" cont="0"/>
        <request index="27" response="1010010000000111010001101101110110" foes="1010010000000111010001101101110110" cont="1"/>
        <request index="28" response="0000000000000000000000000000000000" foes="0000001000100011001000010011111111" cont="0"/>
        <request index="29" response="0000000000000000000000000000000000" foes="0000000111011111111111111111110110" cont="0"/>
        <request index="30" response="0000000000000000000000000000000000" foes="0000000110010000100111111111000100" cont="0"/>
        <request index="31" response="0000000000000000000000000000000000" foes="0000001111111111111111101100111011" cont="0"/>
        <request index="32" response="0000000000000000000000000000000000" foes="0000000001001111111110001000110010" cont="0"/>
        <request index="33" response="0000000000000000000000000000000000" foes="0000001111111100010001100100001001" cont="0"/>
    </junction>
    <junction id="2" type="priority" x="0.00" y="200.00" incLanes="1_2_0 1_2_1 1_2_2 1_2_3 1_2_4" intLanes=":2_0_0" shape="0.00,200.00 0.00,210.40 0.00,200.00">
        <request index="0" response="0" foes="0" cont="0"/>
    </junction>
    <junction id="3" type="priority" x="200.00" y="0.00" incLanes="1_3_0 1_3_1 1_3_2 1_3_3 1_3_4" intLanes=":3_0_0" shape="200.00,0.00 189.60,0.00 200.00,0.00">
        <request index="0" response="0" foes="0" cont="0"/>
    </junction>
    <junction id="4" type="priority" x="400.00" y="200.00" incLanes="1_4_0 1_4_1 1_4_2 1_4_3 1_4_4" intLanes=":4_0_0" shape="400.00,200.00 400.00,189.60 400.00,200.00">
        <request index="0" response="0" foes="0" cont="0"/>
    </junction>
    <junction id="5" type="priority" x="200.00" y="400.00" incLanes="1_5_0 1_5_1 1_5_2 1_5_3 1_5_4" intLanes=":5_0_0" shape="200.00,400.00 210.40,400.00 200.00,400.00">
        <request index="0" response="0" foes="0" cont="0"/>
    </junction>

    <junction id=":1_28_0" type="internal" x="188.40" y="213.14" incLanes=":1_0_0" intLanes=":1_8_0 :1_11_0 :1_11_1 :1_16_0 :1_20_0 :1_c0_0 :1_c3_0 :1_c5_0"/>
    <junction id=":1_29_0" type="internal" x="194.81" y="187.54" incLanes=":1_2_0 3_1_1 3_1_3 3_1_4 5_1_3 5_1_4" intLanes=":1_4_0 :1_4_1 :1_8_0 :1_9_0 :1_11_0 :1_11_1 :1_13_0 :1_14_0 :1_15_0 :1_16_0 :1_17_0 :1_18_0 :1_18_1 :1_20_0 :1_22_0 :1_23_0 :1_25_0 :1_25_1 :1_27_0 :1_c0_0 :1_c1_0 :1_c2_0"/>
    <junction id=":1_30_0" type="internal" x="191.33" y="210.04" incLanes=":1_3_0 5_1_1" intLanes=":1_1_0 :1_2_0 :1_8_0 :1_11_0 :1_11_1 :1_16_0 :1_20_0 :1_c0_0 :1_c3_0 :1_c5_0"/>
    <junction id=":1_31_0" type="internal" x="201.49" y="204.39" incLanes=":1_6_0" intLanes=":1_8_0 :1_9_0 :1_11_0 :1_11_1 :1_13_0 :1_14_0 :1_15_0 :1_16_0 :1_17_0 :1_18_0 :1_18_1 :1_22_0 :1_23_0 :1_25_0 :1_25_1 :1_27_0 :1_c0_0 :1_c1_0 :1_c2_0"/>
    <junction id=":1_32_0" type="internal" x="213.40" y="211.60" incLanes=":1_7_0" intLanes=":1_15_0 :1_18_0 :1_18_1 :1_23_0 :1_27_0 :1_c0_0 :1_c1_0 :1_c2_0"/>