<additional>
   <tlLogic id="1" type="static" programID="my_program" offset="15">

                <phase duration="30" state="gGGrrrrrgGGrrrrrrGrGrr"/>
                <phase duration="10" state="gGGGgrrrrrrrrrrrrrrGrr"/>
                <phase duration="10" state="rrrrrrrrgGGGgrrrrGrrrr"/>
                <phase duration="10" state="rrrGgrrrrrrGgrrrrrrrrr"/>
                <phase duration="30" state="rrrrgGGrrrrrgGGrGrGrrr"/>
                <phase duration="10" state="grrrrrrrrrrrgGGGrrGrrr"/>
                <phase duration="10" state="rrrrgGGGgrrrrrrrGrrrrr"/>
                <phase duration="10" state="grrrrrrGgrrrrrrGrrrrrr"/>
                <phase duration="10" state="rrrrrrrrrrrrrrrrGGGGGG"/>
                <phase duration="5" state="yyyrrrrryyyrrrrrrrrrrr"/>
                <phase duration="5" state="yyyyrrrrrrrrrrrrrrrrrr"/>
                <phase duration="5" state="rrrrrrrryyyyyrrrrrrrrr"/>
                <phase duration="5" state="rrryyrrrrrryyrrrrrrrrr"/>
                <phase duration="5" state="rrrryyyrrrrryyyrrrrrrr"/>
                <phase duration="5" state="yrrrrrrrrrrryyyyrrrrrr"/>
                <phase duration="5" state="rrrryyyyyrrrrrrrrrrrrr"/>
                <phase duration="5" state="yrrrrrryyrrrrrryrrrrrr"/>
                <phase duration="20" state="rrrrrrrrrrrrrrrrrrrrrr"/>
                    
   </tlLogic>
</additional>
