<routes>
            <vType id="cars" accel="3" decel="5" sigma="1" length="5" minGap="2" maxSpeed="13"             guiShape="passenger"/>

            <route id="WE" edges="2_1 1_4" />
            <route id="WN" edges="2_1 1_5" />
            <route id="WS" edges="2_1 1_3" />
            <route id="SN" edges="3_1 1_5" />
            <route id="SW" edges="3_1 1_2" />
            <route id="SE" edges="3_1 1_4" />
            <route id="EW" edges="4_1 1_2" />
            <route id="ES" edges="4_1 1_3" />
            <route id="EN" edges="4_1 1_5" />
            <route id="NS" edges="5_1 1_3" />
            <route id="NE" edges="5_1 1_4" />
            <route id="NW" edges="5_1 1_2" />

            <route id="NS_ped" edges="5_1 :1_w0 :1_c5 :1_w3 1_3" />
            <route id="SN_ped" edges="3_1 :1_w2 :1_c2 :1_w1 1_5" />
            <route id="WE_ped" edges="2_1 :1_w3 :1_c4 :1_w2 1_4" />
            <route id="EW_ped" edges="4_1 :1_w1 :1_c0 :1_w0 1_2" />
            <route id="WN_ped_wn" edges="2_1 :1_w3 :1_c5 :1_w0 :1_c0 :1_w1 1_5" />
            <route id="WN_ped_se" edges="2_1 :1_w3 :1_c4 :1_w2 :1_c2 :1_w1 1_5" />
            <route id="SW_ped_sw" edges="3_1 :1_w2 :1_c4 :1_w3 :1_c5 :1_w0 1_2" />
            <route id="SW_ped_en" edges="3_1 :1_w2 :1_c2 :1_w1 :1_c0 :1_w0 1_2" />
            <route id="ES_ped_es" edges="4_1 :1_w1 :1_c2 :1_w2 :1_c4 :1_w3 1_3" />
            <route id="ES_ped_nw" edges="4_1 :1_w1 :1_c0 :1_w0 :1_c5 :1_w3 1_3" />
            <route id="NE_ped_ne" edges="5_1 :1_w0 :1_c0 :1_w1 :1_c2 :1_w2 1_4" />
            <route id="NE_ped_ws" edges="5_1 :1_w0 :1_c5 :1_w3 :1_c4 :1_w2 1_4" />
            <route id="WN_ped_diag" edges="2_1 :1_w3 :1_c1 :1_w1 1_5" />
            <route id="SW_ped_diag" edges="3_1 :1_w2 :1_c3 :1_w0 1_2" />
            <route id="ES_ped_diag" edges="4_1 :1_w1 :1_c1 :1_w3 1_3" />
            <route id="NE_ped_diag" edges="5_1 :1_w0 :1_c3 :1_w2 1_4" />

            
            <personFlow id="person_WE_s" begin="0" end="600" period="exp(0.06)" departPos="100">
                <walk route="WE_ped"/>
             </personFlow>
            <personFlow id="person_EW_n" begin="0" end="600" period="exp(0.02)" departPos="100">
                <walk route="EW_ped"/>
            </personFlow>
            <personFlow id="person_NS_w" begin="0" end="600" period="exp(0.12)" departPos="100">
                <walk route="NS_ped"/>
            </personFlow>
            <personFlow id="person_SN_e" begin="0" end="600" period="exp(0.04)" departPos="100">
                <walk route="SN_ped"/>
            </personFlow>   
            <personFlow id="person_WN_diag" begin="0" end="600" period="exp(0.06)" departPos="100">
                <walk from="2_1" to="1_5"/>
            </personFlow>
            <personFlow id="person_SW_diag" begin="0" end="600" period="exp(0.06)" departPos="100">
                <walk from="3_1" to="1_2"/>
            </personFlow>   
            <personFlow id="person_ES_diag" begin="0" end="600" period="exp(0.06)" departPos="100">
                <walk from="4_1" to="1_3"/>
            </personFlow>       
            <personFlow id="person_NE_diag" begin="0" end="600" period="exp(0.06)" departPos="100">
                <walk from="5_1" to="1_4"/>
            </personFlow>      
   
            
    <vehicle id="SN_0" type="cars" route="SN" depart="0" departLane="2" color="0,1,0"/>
    <vehicle id="WE_0" type="cars" route="WE" depart="1" departLane="2" color="0,1,0"/>
    <vehicle id="NS_1" type="cars" route="NS" depart="1" departLane="2" color="0,1,0"/>
    <vehicle id="SN_2" type="cars" route="SN" depart="5" departLane="2" color="0,1,0"/>
    <vehicle id="WS_3" type="cars" route="WS" depart="7" departLane="1" color="0,1,0"/>
    <vehicle id="SE_4" type="cars" route="SE" depart="9" departLane="1" color="0,1,0"/>
    <vehicle id="NS_5" type="cars" route="NS" depart="11" departLane="2" color="0,1,0"/>
    <vehicle id="WE_1" type="cars" route="WE" depart="12" departLane="2" color="0,1,0"/>
    <vehicle id="WS_6" type="cars" route="WS" depart="14" departLane="1" color="0,1,0"/>
    <vehicle id="WN_7" type="cars" route="WN" depart="16" departLane="3" color="0,1,0"/>
    <vehicle id="NS_8" type="cars" route="NS" depart="17" departLane="2" color="0,1,0"/>
    <vehicle id="SN_9" type="cars" route="SN" depart="18" departLane="2" color="0,1,0"/>
    <vehicle id="EN_10" type="cars" route="EN" depart="20" departLane="1" color="0,1,0"/>
    <vehicle id="NS_11" type="cars" route="NS" depart="20" departLane="2" color="0,1,0"/>
    <vehicle id="WE_2" type="cars" route="WE" depart="22" departLane="2" color="0,1,0"/>
    <vehicle id="EW_0" type="cars" route="EW" depart="22" departLane="2" color="0,1,0"/>
    <vehicle id="SN_12" type="cars" route="SN" depart="25" departLane="2" color="0,1,0"/>
    <vehicle id="NS_13" type="cars" route="NS" depart="26" departLane="2" color="0,1,0"/>
    <vehicle id="WE_3" type="cars" route="WE" depart="27" departLane="2" color="0,1,0"/>
    <vehicle id="NS_14" type="cars" route="NS" depart="27" departLane="2" color="0,1,0"/>
    <vehicle id="SN_15" type="cars" route="SN" depart="29" departLane="2" color="0,1,0"/>
    <vehicle id="NS_16" type="cars" route="NS" depart="30" departLane="2" color="0,1,0"/>
    <vehicle id="SN_17" type="cars" route="SN" depart="33" departLane="2" color="0,1,0"/>
    <vehicle id="SN_18" type="cars" route="SN" depart="36" departLane="2" color="0,1,0"/>
    <vehicle id="SE_19" type="cars" route="SE" depart="39" departLane="1" color="0,1,0"/>
    <vehicle id="SN_20" type="cars" route="SN" depart="40" departLane="2" color="0,1,0"/>
    <vehicle id="EW_1" type="cars" route="EW" depart="42" departLane="2" color="0,1,0"/>
    <vehicle id="EW_2" type="cars" route="EW" depart="46" departLane="2" color="0,1,0"/>
    <vehicle id="WE_4" type="cars" route="WE" depart="50" departLane="2" color="0,1,0"/>
    <vehicle id="NW_21" type="cars" route="NW" depart="53" departLane="1" color="0,1,0"/>
    <vehicle id="EW_3" type="cars" route="EW" depart="59" departLane="2" color="0,1,0"/>
    <vehicle id="EW_4" type="cars" route="EW" depart="62" departLane="2" color="0,1,0"/>
    <vehicle id="NS_22" type="cars" route="NS" depart="66" departLane="2" color="0,1,0"/>
    <vehicle id="NW_23" type="cars" route="NW" depart="69" departLane="1" color="0,1,0"/>
    <vehicle id="ES_24" type="cars" route="ES" depart="73" departLane="3" color="0,1,0"/>
    <vehicle id="SN_25" type="cars" route="SN" depart="74" departLane="2" color="0,1,0"/>
    <vehicle id="WE_5" type="cars" route="WE" depart="75" departLane="2" color="0,1,0"/>
    <vehicle id="NS_26" type="cars" route="NS" depart="75" departLane="2" color="0,1,0"/>
    <vehicle id="EW_5" type="cars" route="EW" depart="76" departLane="2" color="0,1,0"/>
    <vehicle id="WE_6" type="cars" route="WE" depart="77" departLane="2" color="0,1,0"/>
    <vehicle id="SE_27" type="cars" route="SE" depart="78" departLane="1" color="0,1,0"/>
    <vehicle id="SN_28" type="cars" route="SN" depart="81" departLane="2" color="0,1,0"/>
    <vehicle id="NS_29" type="cars" route="NS" depart="83" departLane="2" color="0,1,0"/>
    <vehicle id="SN_30" type="cars" route="SN" depart="83" departLane="2" color="0,1,0"/>
    <vehicle id="SN_31" type="cars" route="SN" depart="84" departLane="2" color="0,1,0"/>
    <vehicle id="NS_32" type="cars" route="NS" depart="87" departLane="2" color="0,1,0"/>
    <vehicle id="WE_7" type="cars" route="WE" depart="89" departLane="2" color="0,1,0"/>
    <vehicle id="SN_33" type="cars" route="SN" depart="90" departLane="2" color="0,1,0"/>
    <vehicle id="WE_8" type="cars" route="WE" depart="92" departLane="2" color="0,1,0"/>
    <vehicle id="EW_6" type="cars" route="EW" depart="92" departLane="2" color="0,1,0"/>
    <vehicle id="SN_34" type="cars" route="SN" depart="97" departLane="2" color="0,1,0"/>
    <vehicle id="WN_35" type="cars" route="WN" depart="99" departLane="3" color="0,1,0"/>
    <vehicle id="WE_9" type="cars" route="WE" depart="101" departLane="2" color="0,1,0"/>
    <vehicle id="NE_36" type="cars" route="NE" depart="101" departLane="3" color="0,1,0"/>
    <vehicle id="WE_10" type="cars" route="WE" depart="106" departLane="2" color="0,1,0"/>
    <vehicle id="SN_37" type="cars" route="SN" depart="107" departLane="2" color="0,1,0"/>
    <vehicle id="EN_38" type="cars" route="EN" depart="109" departLane="1" color="0,1,0"/>
    <vehicle id="SN_39" type="cars" route="SN" depart="110" departLane="2" color="0,1,0"/>
    <vehicle id="EW_7" type="cars" route="EW" depart="111" departLane="2" color="0,1,0"/>
    <vehicle id="NS_40" type="cars" route="NS" depart="111" departLane="2" color="0,1,0"/>
    <vehicle id="WE_11" type="cars" route="WE" depart="116" departLane="2" color="0,1,0"/>
    <vehicle id="WE_12" type="cars" route="WE" depart="117" departLane="2" color="0,1,0"/>
    <vehicle id="WE_13" type="cars" route="WE" depart="118" departLane="2" color="0,1,0"/>
    <vehicle id="WE_14" type="cars" route="WE" depart="119" departLane="2" color="0,1,0"/>
    <vehicle id="NS_41" type="cars" route="NS" depart="121" departLane="2" color="0,1,0"/>
    <vehicle id="NS_42" type="cars" route="NS" depart="122" departLane="2" color="0,1,0"/>
    <vehicle id="SW_43" type="cars" route="SW" depart="122" departLane="3" color="0,1,0"/>
    <vehicle id="EW_8" type="cars" route="EW" depart="123" departLane="2" color="0,1,0"/>
    <vehicle id="WE_15" type="cars" route="WE" depart="125" departLane="2" color="0,1,0"/>
    <vehicle id="EW_9" type="cars" route="EW" depart="128" departLane="2" color="0,1,0"/>
    <vehicle id="ES_44" type="cars" route="ES" depart="128" departLane="3" color="0,1,0"/>
    <vehicle id="SN_45" type="cars" route="SN" depart="128" departLane="2" color="0,1,0"/>
    <vehicle id="NS_46" type="cars" route="NS" depart="131" departLane="2" color="0,1,0"/>
    <vehicle id="SN_47" type="cars" route="SN" depart="132" departLane="2" color="0,1,0"/>
    <vehicle id="WS_48" type="cars" route="WS" depart="134" departLane="1" color="0,1,0"/>
    <vehicle id="NS_49" type="cars" route="NS" depart="134" departLane="2" color="0,1,0"/>
    <vehicle id="SN_50" type="cars" route="SN" depart="134" departLane="2" color="0,1,0"/>
    <vehicle id="SE_51" type="cars" route="SE" depart="135" departLane="1" color="0,1,0"/>
    <vehicle id="NS_52" type="cars" route="NS" depart="137" departLane="2" color="0,1,0"/>
    <vehicle id="SN_53" type="cars" route="SN" depart="139" departLane="2" color="0,1,0"/>
    <vehicle id="NW_54" type="cars" route="NW" depart="140" departLane="1" color="0,1,0"/>
    <vehicle id="NS_55" type="cars" route="NS" depart="142" departLane="2" color="0,1,0"/>
    <vehicle id="SE_56" type="cars" route="SE" depart="144" departLane="1" color="0,1,0"/>
    <vehicle id="NS_57" type="cars" route="NS" depart="146" departLane="2" color="0,1,0"/>
    <vehicle id="WE_16" type="cars" route="WE" depart="147" departLane="2" color="0,1,0"/>
    <vehicle id="WE_17" type="cars" route="WE" depart="148" departLane="2" color="0,1,0"/>
    <vehicle id="NS_58" type="cars" route="NS" depart="149" departLane="2" color="0,1,0"/>
    <vehicle id="NW_59" type="cars" route="NW" depart="149" departLane="1" color="0,1,0"/>
    <vehicle id="NS_60" type="cars" route="NS" depart="150" departLane="2" color="0,1,0"/>
    <vehicle id="EW_10" type="cars" route="EW" depart="153" departLane="2" color="0,1,0"/>
    <vehicle id="NS_61" type="cars" route="NS" depart="153" departLane="2" color="0,1,0"/>
    <vehicle id="WE_18" type="cars" route="WE" depart="154" departLane="2" color="0,1,0"/>
    <vehicle id="SW_62" type="cars" route="SW" depart="154" departLane="3" color="0,1,0"/>
    <vehicle id="WE_19" type="cars" route="WE" depart="155" departLane="2" color="0,1,0"/>
    <vehicle id="SE_63" type="cars" route="SE" depart="156" departLane="1" color="0,1,0"/>
    <vehicle id="WE_20" type="cars" route="WE" depart="157" departLane="2" color="0,1,0"/>
    <vehicle id="WE_21" type="cars" route="WE" depart="160" departLane="2" color="0,1,0"/>
    <vehicle id="SN_64" type="cars" route="SN" depart="161" departLane="2" color="0,1,0"/>
    <vehicle id="EW_11" type="cars" route="EW" depart="162" departLane="2" color="0,1,0"/>
    <vehicle id="EW_12" type="cars" route="EW" depart="170" departLane="2" color="0,1,0"/>
    <vehicle id="WS_65" type="cars" route="WS" depart="171" departLane="1" color="0,1,0"/>
    <vehicle id="WE_22" type="cars" route="WE" depart="172" departLane="2" color="0,1,0"/>
    <vehicle id="EW_13" type="cars" route="EW" depart="173" departLane="2" color="0,1,0"/>
    <vehicle id="SW_66" type="cars" route="SW" depart="173" departLane="3" color="0,1,0"/>
    <vehicle id="NS_67" type="cars" route="NS" depart="175" departLane="2" color="0,1,0"/>
    <vehicle id="SN_68" type="cars" route="SN" depart="175" departLane="2" color="0,1,0"/>
    <vehicle id="WE_23" type="cars" route="WE" depart="178" departLane="2" color="0,1,0"/>
    <vehicle id="SN_69" type="cars" route="SN" depart="181" departLane="2" color="0,1,0"/>
    <vehicle id="SN_70" type="cars" route="SN" depart="182" departLane="2" color="0,1,0"/>
    <vehicle id="SW_71" type="cars" route="SW" depart="182" departLane="3" color="0,1,0"/>
    <vehicle id="NS_72" type="cars" route="NS" depart="186" departLane="2" color="0,1,0"/>
    <vehicle id="EW_14" type="cars" route="EW" depart="188" departLane="2" color="0,1,0"/>
    <vehicle id="ES_73" type="cars" route="ES" depart="188" departLane="3" color="0,1,0"/>
    <vehicle id="WE_24" type="cars" route="WE" depart="189" departLane="2" color="0,1,0"/>
    <vehicle id="SN_74" type="cars" route="SN" depart="194" departLane="2" color="0,1,0"/>
    <vehicle id="EN_75" type="cars" route="EN" depart="196" departLane="1" color="0,1,0"/>
    <vehicle id="SN_76" type="cars" route="SN" depart="197" departLane="2" color="0,1,0"/>
    <vehicle id="NS_77" type="cars" route="NS" depart="198" departLane="2" color="0,1,0"/>
    <vehicle id="SE_78" type="cars" route="SE" depart="198" departLane="1" color="0,1,0"/>
    <vehicle id="SE_79" type="cars" route="SE" depart="199" departLane="1" color="0,1,0"/>
    <vehicle id="EW_15" type="cars" route="EW" depart="200" departLane="2" color="0,1,0"/>
    <vehicle id="WE_25" type="cars" route="WE" depart="201" departLane="2" color="0,1,0"/>
    <vehicle id="EW_16" type="cars" route="EW" depart="201" departLane="2" color="0,1,0"/>
    <vehicle id="EN_80" type="cars" route="EN" depart="201" departLane="1" color="0,1,0"/>
    <vehicle id="NS_81" type="cars" route="NS" depart="201" departLane="2" color="0,1,0"/>
    <vehicle id="SE_82" type="cars" route="SE" depart="201" departLane="1" color="0,1,0"/>
    <vehicle id="WE_26" type="cars" route="WE" depart="203" departLane="2" color="0,1,0"/>
    <vehicle id="EW_17" type="cars" route="EW" depart="205" departLane="2" color="0,1,0"/>
    <vehicle id="EN_83" type="cars" route="EN" depart="205" departLane="1" color="0,1,0"/>
    <vehicle id="NS_84" type="cars" route="NS" depart="206" departLane="2" color="0,1,0"/>
    <vehicle id="WE_27" type="cars" route="WE" depart="208" departLane="2" color="0,1,0"/>
    <vehicle id="SN_85" type="cars" route="SN" depart="211" departLane="2" color="0,1,0"/>
    <vehicle id="WN_86" type="cars" route="WN" depart="212" departLane="3" color="0,1,0"/>
    <vehicle id="WS_87" type="cars" route="WS" depart="213" departLane="1" color="0,1,0"/>
    <vehicle id="NE_88" type="cars" route="NE" depart="216" departLane="3" color="0,1,0"/>
    <vehicle id="WN_89" type="cars" route="WN" depart="217" departLane="3" color="0,1,0"/>
    <vehicle id="WE_28" type="cars" route="WE" depart="218" departLane="2" color="0,1,0"/>
    <vehicle id="SN_90" type="cars" route="SN" depart="218" departLane="2" color="0,1,0"/>
    <vehicle id="NS_91" type="cars" route="NS" depart="219" departLane="2" color="0,1,0"/>
    <vehicle id="NS_92" type="cars" route="NS" depart="221" departLane="2" color="0,1,0"/>
    <vehicle id="SE_93" type="cars" route="SE" depart="222" departLane="1" color="0,1,0"/>
    <vehicle id="SN_94" type="cars" route="SN" depart="223" departLane="2" color="0,1,0"/>
    <vehicle id="NS_95" type="cars" route="NS" depart="225" departLane="2" color="0,1,0"/>
    <vehicle id="WN_96" type="cars" route="WN" depart="226" departLane="3" color="0,1,0"/>
    <vehicle id="SW_97" type="cars" route="SW" depart="229" departLane="3" color="0,1,0"/>
    <vehicle id="EW_18" type="cars" route="EW" depart="230" departLane="2" color="0,1,0"/>
    <vehicle id="EW_19" type="cars" route="EW" depart="231" departLane="2" color="0,1,0"/>
    <vehicle id="SN_98" type="cars" route="SN" depart="232" departLane="2" color="0,1,0"/>
    <vehicle id="EW_20" type="cars" route="EW" depart="233" departLane="2" color="0,1,0"/>
    <vehicle id="WE_29" type="cars" route="WE" depart="236" departLane="2" color="0,1,0"/>
    <vehicle id="WE_30" type="cars" route="WE" depart="237" departLane="2" color="0,1,0"/>
    <vehicle id="NW_99" type="cars" route="NW" depart="238" departLane="1" color="0,1,0"/>
    <vehicle id="EW_21" type="cars" route="EW" depart="242" departLane="2" color="0,1,0"/>
    <vehicle id="WE_31" type="cars" route="WE" depart="246" departLane="2" color="0,1,0"/>
    <vehicle id="WS_100" type="cars" route="WS" depart="246" departLane="1" color="0,1,0"/>
    <vehicle id="SN_101" type="cars" route="SN" depart="246" departLane="2" color="0,1,0"/>
    <vehicle id="SN_102" type="cars" route="SN" depart="248" departLane="2" color="0,1,0"/>
    <vehicle id="WE_32" type="cars" route="WE" depart="250" departLane="2" color="0,1,0"/>
    <vehicle id="SN_103" type="cars" route="SN" depart="250" departLane="2" color="0,1,0"/>
    <vehicle id="SW_104" type="cars" route="SW" depart="250" departLane="3" color="0,1,0"/>
    <vehicle id="SE_105" type="cars" route="SE" depart="250" departLane="1" color="0,1,0"/>
    <vehicle id="WE_33" type="cars" route="WE" depart="251" departLane="2" color="0,1,0"/>
    <vehicle id="SW_106" type="cars" route="SW" depart="251" departLane="3" color="0,1,0"/>
    <vehicle id="ES_107" type="cars" route="ES" depart="254" departLane="3" color="0,1,0"/>
    <vehicle id="NS_108" type="cars" route="NS" depart="256" departLane="2" color="0,1,0"/>
    <vehicle id="WE_34" type="cars" route="WE" depart="257" departLane="2" color="0,1,0"/>
    <vehicle id="EW_22" type="cars" route="EW" depart="258" departLane="2" color="0,1,0"/>
    <vehicle id="NS_109" type="cars" route="NS" depart="258" departLane="2" color="0,1,0"/>
    <vehicle id="SN_110" type="cars" route="SN" depart="258" departLane="2" color="0,1,0"/>
    <vehicle id="EN_111" type="cars" route="EN" depart="260" departLane="1" color="0,1,0"/>
    <vehicle id="EW_23" type="cars" route="EW" depart="263" departLane="2" color="0,1,0"/>
    <vehicle id="SE_112" type="cars" route="SE" depart="266" departLane="1" color="0,1,0"/>
    <vehicle id="NE_113" type="cars" route="NE" depart="267" departLane="3" color="0,1,0"/>
    <vehicle id="ES_114" type="cars" route="ES" depart="268" departLane="3" color="0,1,0"/>
    <vehicle id="SN_115" type="cars" route="SN" depart="268" departLane="2" color="0,1,0"/>
    <vehicle id="NS_116" type="cars" route="NS" depart="269" departLane="2" color="0,1,0"/>
    <vehicle id="SN_117" type="cars" route="SN" depart="269" departLane="2" color="0,1,0"/>
    <vehicle id="EW_24" type="cars" route="EW" depart="271" departLane="2" color="0,1,0"/>
    <vehicle id="WE_35" type="cars" route="WE" depart="273" departLane="2" color="0,1,0"/>
    <vehicle id="ES_118" type="cars" route="ES" depart="274" departLane="3" color="0,1,0"/>
    <vehicle id="WS_119" type="cars" route="WS" depart="275" departLane="1" color="0,1,0"/>
    <vehicle id="WS_120" type="cars" route="WS" depart="276" departLane="1" color="0,1,0"/>
    <vehicle id="EW_25" type="cars" route="EW" depart="278" departLane="2" color="0,1,0"/>
    <vehicle id="ES_121" type="cars" route="ES" depart="278" departLane="3" color="0,1,0"/>
    <vehicle id="NS_122" type="cars" route="NS" depart="278" departLane="2" color="0,1,0"/>
    <vehicle id="EN_123" type="cars" route="EN" depart="279" departLane="1" color="0,1,0"/>
    <vehicle id="SN_124" type="cars" route="SN" depart="279" departLane="2" color="0,1,0"/>
    <vehicle id="SW_125" type="cars" route="SW" depart="279" departLane="3" color="0,1,0"/>
    <vehicle id="SN_126" type="cars" route="SN" depart="280" departLane="2" color="0,1,0"/>
    <vehicle id="WE_36" type="cars" route="WE" depart="281" departLane="2" color="0,1,0"/>
    <vehicle id="NS_127" type="cars" route="NS" depart="282" departLane="2" color="0,1,0"/>
    <vehicle id="EW_26" type="cars" route="EW" depart="283" departLane="2" color="0,1,0"/>
    <vehicle id="SN_128" type="cars" route="SN" depart="285" departLane="2" color="0,1,0"/>
    <vehicle id="WE_37" type="cars" route="WE" depart="286" departLane="2" color="0,1,0"/>
    <vehicle id="NS_129" type="cars" route="NS" depart="287" departLane="2" color="0,1,0"/>
    <vehicle id="NS_130" type="cars" route="NS" depart="288" departLane="2" color="0,1,0"/>
    <vehicle id="SN_131" type="cars" route="SN" depart="290" departLane="2" color="0,1,0"/>
    <vehicle id="WE_38" type="cars" route="WE" depart="292" departLane="2" color="0,1,0"/>
    <vehicle id="NS_132" type="cars" route="NS" depart="293" departLane="2" color="0,1,0"/>
    <vehicle id="WE_39" type="cars" route="WE" depart="299" departLane="2" color="0,1,0"/>
    <vehicle id="SN_133" type="cars" route="SN" depart="300" departLane="2" color="0,1,0"/>
    <vehicle id="SW_134" type="cars" route="SW" depart="300" departLane="3" color="0,1,0"/>
    <vehicle id="SN_135" type="cars" route="SN" depart="301" departLane="2" color="0,1,0"/>
    <vehicle id="EN_136" type="cars" route="EN" depart="302" departLane="1" color="0,1,0"/>
    <vehicle id="WE_40" type="cars" route="WE" depart="303" departLane="2" color="0,1,0"/>
    <vehicle id="NS_137" type="cars" route="NS" depart="303" departLane="2" color="0,1,0"/>
    <vehicle id="NS_138" type="cars" route="NS" depart="305" departLane="2" color="0,1,0"/>
    <vehicle id="EW_27" type="cars" route="EW" depart="306" departLane="2" color="0,1,0"/>
    <vehicle id="SN_139" type="cars" route="SN" depart="308" departLane="2" color="0,1,0"/>
    <vehicle id="WE_41" type="cars" route="WE" depart="309" departLane="2" color="0,1,0"/>
    <vehicle id="EW_28" type="cars" route="EW" depart="309" departLane="2" color="0,1,0"/>
    <vehicle id="NS_140" type="cars" route="NS" depart="310" departLane="2" color="0,1,0"/>
    <vehicle id="WE_42" type="cars" route="WE" depart="311" departLane="2" color="0,1,0"/>
    <vehicle id="WN_141" type="cars" route="WN" depart="312" departLane="3" color="0,1,0"/>
    <vehicle id="NS_142" type="cars" route="NS" depart="313" departLane="2" color="0,1,0"/>
    <vehicle id="NS_143" type="cars" route="NS" depart="315" departLane="2" color="0,1,0"/>
    <vehicle id="SN_144" type="cars" route="SN" depart="316" departLane="2" color="0,1,0"/>
    <vehicle id="WE_43" type="cars" route="WE" depart="317" departLane="2" color="0,1,0"/>
    <vehicle id="EW_29" type="cars" route="EW" depart="321" departLane="2" color="0,1,0"/>
    <vehicle id="NS_145" type="cars" route="NS" depart="322" departLane="2" color="0,1,0"/>
    <vehicle id="SN_146" type="cars" route="SN" depart="322" departLane="2" color="0,1,0"/>
    <vehicle id="SW_147" type="cars" route="SW" depart="324" departLane="3" color="0,1,0"/>
    <vehicle id="NS_148" type="cars" route="NS" depart="325" departLane="2" color="0,1,0"/>
    <vehicle id="EW_30" type="cars" route="EW" depart="326" departLane="2" color="0,1,0"/>
    <vehicle id="EW_31" type="cars" route="EW" depart="327" departLane="2" color="0,1,0"/>
    <vehicle id="WE_44" type="cars" route="WE" depart="328" departLane="2" color="0,1,0"/>
    <vehicle id="WE_45" type="cars" route="WE" depart="329" departLane="2" color="0,1,0"/>
    <vehicle id="EW_32" type="cars" route="EW" depart="330" departLane="2" color="0,1,0"/>
    <vehicle id="WE_46" type="cars" route="WE" depart="334" departLane="2" color="0,1,0"/>
    <vehicle id="NS_149" type="cars" route="NS" depart="334" departLane="2" color="0,1,0"/>
    <vehicle id="EW_33" type="cars" route="EW" depart="336" departLane="2" color="0,1,0"/>
    <vehicle id="SN_150" type="cars" route="SN" depart="336" departLane="2" color="0,1,0"/>
    <vehicle id="WE_47" type="cars" route="WE" depart="337" departLane="2" color="0,1,0"/>
    <vehicle id="NS_151" type="cars" route="NS" depart="338" departLane="2" color="0,1,0"/>
    <vehicle id="WE_48" type="cars" route="WE" depart="339" departLane="2" color="0,1,0"/>
    <vehicle id="WE_49" type="cars" route="WE" depart="340" departLane="2" color="0,1,0"/>
    <vehicle id="WE_50" type="cars" route="WE" depart="341" departLane="2" color="0,1,0"/>
    <vehicle id="NS_152" type="cars" route="NS" depart="342" departLane="2" color="0,1,0"/>
    <vehicle id="SE_153" type="cars" route="SE" depart="342" departLane="1" color="0,1,0"/>
    <vehicle id="WE_51" type="cars" route="WE" depart="343" departLane="2" color="0,1,0"/>
    <vehicle id="WN_154" type="cars" route="WN" depart="343" departLane="3" color="0,1,0"/>
    <vehicle id="NS_155" type="cars" route="NS" depart="343" departLane="2" color="0,1,0"/>
    <vehicle id="WE_52" type="cars" route="WE" depart="344" departLane="2" color="0,1,0"/>
    <vehicle id="EW_34" type="cars" route="EW" depart="344" departLane="2" color="0,1,0"/>
    <vehicle id="NS_156" type="cars" route="NS" depart="344" departLane="2" color="0,1,0"/>
    <vehicle id="WE_53" type="cars" route="WE" depart="345" departLane="2" color="0,1,0"/>
    <vehicle id="WE_54" type="cars" route="WE" depart="347" departLane="2" color="0,1,0"/>
    <vehicle id="NS_157" type="cars" route="NS" depart="347" departLane="2" color="0,1,0"/>
    <vehicle id="SW_158" type="cars" route="SW" depart="347" departLane="3" color="0,1,0"/>
    <vehicle id="ES_159" type="cars" route="ES" depart="349" departLane="3" color="0,1,0"/>
    <vehicle id="SW_160" type="cars" route="SW" depart="350" departLane="3" color="0,1,0"/>
    <vehicle id="NE_161" type="cars" route="NE" depart="351" departLane="3" color="0,1,0"/>
    <vehicle id="SW_162" type="cars" route="SW" depart="351" departLane="3" color="0,1,0"/>
    <vehicle id="SN_163" type="cars" route="SN" depart="352" departLane="2" color="0,1,0"/>
    <vehicle id="NS_164" type="cars" route="NS" depart="354" departLane="2" color="0,1,0"/>
    <vehicle id="NS_165" type="cars" route="NS" depart="356" departLane="2" color="0,1,0"/>
    <vehicle id="SN_166" type="cars" route="SN" depart="356" departLane="2" color="0,1,0"/>
    <vehicle id="WE_55" type="cars" route="WE" depart="360" departLane="2" color="0,1,0"/>
    <vehicle id="WE_56" type="cars" route="WE" depart="361" departLane="2" color="0,1,0"/>
    <vehicle id="NS_167" type="cars" route="NS" depart="361" departLane="2" color="0,1,0"/>
    <vehicle id="SN_168" type="cars" route="SN" depart="365" departLane="2" color="0,1,0"/>
    <vehicle id="EW_35" type="cars" route="EW" depart="367" departLane="2" color="0,1,0"/>
    <vehicle id="SE_169" type="cars" route="SE" depart="368" departLane="1" color="0,1,0"/>
    <vehicle id="SN_170" type="cars" route="SN" depart="369" departLane="2" color="0,1,0"/>
    <vehicle id="NS_171" type="cars" route="NS" depart="370" departLane="2" color="0,1,0"/>
    <vehicle id="NS_172" type="cars" route="NS" depart="372" departLane="2" color="0,1,0"/>
    <vehicle id="SN_173" type="cars" route="SN" depart="373" departLane="2" color="0,1,0"/>
    <vehicle id="NS_174" type="cars" route="NS" depart="374" departLane="2" color="0,1,0"/>
    <vehicle id="NS_175" type="cars" route="NS" depart="376" departLane="2" color="0,1,0"/>
    <vehicle id="NW_176" type="cars" route="NW" depart="377" departLane="1" color="0,1,0"/>
    <vehicle id="NS_177" type="cars" route="NS" depart="379" departLane="2" color="0,1,0"/>
    <vehicle id="EW_36" type="cars" route="EW" depart="380" departLane="2" color="0,1,0"/>
    <vehicle id="NW_178" type="cars" route="NW" depart="380" departLane="1" color="0,1,0"/>
    <vehicle id="SE_179" type="cars" route="SE" depart="380" departLane="1" color="0,1,0"/>
    <vehicle id="NS_180" type="cars" route="NS" depart="390" departLane="2" color="0,1,0"/>
    <vehicle id="WE_57" type="cars" route="WE" depart="391" departLane="2" color="0,1,0"/>
    <vehicle id="WE_58" type="cars" route="WE" depart="394" departLane="2" color="0,1,0"/>
    <vehicle id="NW_181" type="cars" route="NW" depart="394" departLane="1" color="0,1,0"/>
    <vehicle id="SE_182" type="cars" route="SE" depart="394" departLane="1" color="0,1,0"/>
    <vehicle id="NS_183" type="cars" route="NS" depart="398" departLane="2" color="0,1,0"/>
    <vehicle id="NS_184" type="cars" route="NS" depart="399" departLane="2" color="0,1,0"/>
    <vehicle id="SN_185" type="cars" route="SN" depart="402" departLane="2" color="0,1,0"/>
    <vehicle id="EW_37" type="cars" route="EW" depart="403" departLane="2" color="0,1,0"/>
    <vehicle id="WE_59" type="cars" route="WE" depart="405" departLane="2" color="0,1,0"/>
    <vehicle id="NS_186" type="cars" route="NS" depart="408" departLane="2" color="0,1,0"/>
    <vehicle id="NS_187" type="cars" route="NS" depart="409" departLane="2" color="0,1,0"/>
    <vehicle id="SW_188" type="cars" route="SW" depart="409" departLane="3" color="0,1,0"/>
    <vehicle id="EW_38" type="cars" route="EW" depart="410" departLane="2" color="0,1,0"/>
    <vehicle id="NS_189" type="cars" route="NS" depart="410" departLane="2" color="0,1,0"/>
    <vehicle id="EW_39" type="cars" route="EW" depart="412" departLane="2" color="0,1,0"/>
    <vehicle id="SN_190" type="cars" route="SN" depart="412" departLane="2" color="0,1,0"/>
    <vehicle id="NS_191" type="cars" route="NS" depart="418" departLane="2" color="0,1,0"/>
    <vehicle id="NW_192" type="cars" route="NW" depart="419" departLane="1" color="0,1,0"/>