<additional>
   <tlLogic id="1" type="static" programID="my_program" offset="15">

            <phase duration="30" state="grrGGGrgrrrrrrgrrGGGrgrrrrrrrrrrrr"/>
            <phase duration="10" state="grrGGGGgrrrrrrgrrrrrrgrrrrrrrrrrrr"/>
            <phase duration="10" state="grrrrrrgrrrrrrgrrGGGGgrrrrrrrrrrrr"/>
            <phase duration="10" state="grrrrrGgrrrrrrgrrrrrGgrrrrrrrrrrrr"/>
            <phase duration="30" state="grrrrrrgrrGGGrgrrrrrrgrrGGGrrrrrrr"/>
            <phase duration="10" state="grrrrrrgrrrrrrgrrrrrrgrrGGGGrrrrrr"/>
            <phase duration="10" state="grrrrrrgrrGGGGgrrrrrrgrrrrrrrrrrrr"/>
            <phase duration="10" state="grrrrrrgrrrrrGgrrrrrrgrrrrrGrrrrrr"/>
            <phase duration="10" state="GGGrrrrGGGrrrrGGGrrrrrGGrrrrGGGGGG"/>
            <phase duration="8" state="grryyyrgrrrrrrgrryyyrgrrrrrrrrrrrr"/>
            <phase duration="8" state="grryyyygrrrrrrgrrrrrrgrrrrrrrrrrrr"/>
            <phase duration="8" state="grrrrrrgrrrrrrgrryyyygrrrrrrrrrrrr"/>
            <phase duration="8" state="grrrrrygrrrrrrgrrrrrygrrrrrrrrrrrr"/>
            <phase duration="8" state="grrrrrrgrryyyrgrrrrrrgrryyyrrrrrrr"/>
            <phase duration="8" state="grrrrrrgrrrrrrgrrrrrrgrryyyyrrrrrr"/>
            <phase duration="8" state="grrrrrrgrryyyygrrrrrrgrrrrrrrrrrrr"/>
            <phase duration="8" state="grrrrrrgrrrrrygrrrrrrgrrrrryrrrrrr"/>
            <phase duration="20" state="rrrrrrrrrrrrrrrrrrrrrrrrrrrrrrrrrr"/>
                
   </tlLogic>
</additional>
