<additional>
   <tlLogic id="1" type="static" programID="my_program" offset="15">

            <phase duration="30" state="gGGrGrgrrrrrgGGrGrgGrrrrrrGrrGGrrG"/>
            <phase duration="10" state="gGGrGGgrrGrrgrrrrrgrrrrrrrrrrGrrrG"/>
            <phase duration="10" state="grrrrrgrrrrrgGGrGGgrrGrrrrGrrrGrrr"/>
            <phase duration="10" state="grrrrGgrrGrrgrrrrGgrrGrrrrrrrrrrrr"/>
            <phase duration="30" state="grrrrrgGGrGrgrrrrrgGGrGrGrrrGrrrGr"/>
            <phase duration="10" state="grrGrrgrrrrrgrrrrrgGGrGGrrrrGrrrGr"/>
            <phase duration="10" state="grrrrrgGGrGGgrrGrrgrrrrrGrrrrrrrGr"/>
            <phase duration="10" state="grrGrrgrrrrGgrrGrrgrrrrGrrrrrrrrGr"/>
            <phase duration="10" state="gGGrrrgGGGrrrGGGrrgGGgrrGGGGGGGGGG"/>
            <phase duration="8" state="grrryrgrrrrrgrrryrgrrrrrrrrrrrGrrG"/>
            <phase duration="8" state="grrryygrryrrgrrrrrgrrrrrrrrrrrrrrr"/>
            <phase duration="8" state="grrrrrgrrrrrgrrryygrryrrrrrrrrGrrr"/>
            <phase duration="8" state="grrrrygrryrrgrrrrygrryrrrrrrrrrrrr"/>
            <phase duration="8" state="grrrrrgrrryrgrrrrrgrrryrrrrrrrrrGr"/>
            <phase duration="8" state="grrrrrgrrrrrgrrrrrgrryyyrrrrrrrrGr"/>
            <phase duration="8" state="grrrrrgrrryygrryrrgrrrrrrrrrrrrrGr"/>
            <phase duration="8" state="grryrrgrrrrygrryrrgrrrryrrrrrrrrGr"/>
            <phase duration="20" state="rrrrrrrrrrrrrrrrrrrrrrrrrrrrrrrrrr"/>
            <phase duration="30" state="gGGrGrgrrrrrgGGrGrgGrrrrrrrrrrGrrG"/>
            <phase duration="10" state="gGGrGGgrrGrrgrrrrrgrrrrrrrrrrrrrrG"/>
            <phase duration="10" state="grrrrrgrrrrrgGGrGGgrrGrrrrrrrrGrrr"/>
            <phase duration="10" state="grrrrGgrrGrrgrrrrGgrrGrrrrrrrrrrrr"/>
            <phase duration="30" state="grrrrrgGGrGrgrrrrrgGGrGrrrrrrrrrGr"/>
            <phase duration="10" state="grrGrrgrrrrrgrrrrrgGGrGGrrrrrrrrGr"/>
            <phase duration="10" state="grrrrrgGGrGGgrrGrrgrrrrrrrrrrrrrGr"/>
            <phase duration="10" state="grrGrrgrrrrGgrrGrrgrrrrGrrrrrrrrGr"/>
            <phase duration="10" state="rrrrrrrrrrrrrrrrrrrrrrrrrrrrrrrrrr"/>
                
   </tlLogic>
</additional>
