<?xml version="1.0" encoding="UTF-8"?>
<edges>
   <edge id="2_1" from="2" to="1" priority="10" numLanes="3" speed="20" />
   <edge id="1_2" from="1" to="2" priority="10" numLanes="3" speed="20" />
   <edge id="3_1" from="3" to="1" priority="10" numLanes="3" speed="20" />
   <edge id="1_3" from="1" to="3" priority="10" numLanes="3" speed="20" />
   <edge id="4_1" from="4" to="1" priority="10" numLanes="3" speed="20" />
   <edge id="1_4" from="1" to="4" priority="10" numLanes="3" speed="20" />
   <edge id="5_1" from="5" to="1" priority="10" numLanes="3" speed="20" />
   <edge id="1_5" from="1" to="5" priority="10" numLanes="3" speed="20" />
</edges>
