<additional>
   <tlLogic id="1" type="static" programID="my_program" offset="15">

            <phase duration="30" state="gGGrGrgrrrrrgGGrGrgrrrrrrrGrrGGrrG"/>
            <phase duration="10" state="gGGrGGgrrGrrgrrrrrgrrrrrrrrrrGrrrG"/>
            <phase duration="10" state="grrrrrgrrrrrgGGrGGgrrGrrrrGrrrGrrr"/>
            <phase duration="10" state="grrrrGgrrGrrgrrrrGgrrGrrrrrrrrrrrr"/>
            <phase duration="30" state="grrrrrgGGrGrgrrrrrgGGrGrGrrrGrrrGr"/>
            <phase duration="10" state="grrGrrgrrrrrgrrrrrgGGrGGrrrrGrrrGr"/>
            <phase duration="10" state="grrrrrgGGrGGgrrGrrgrrrrrGrrrrrrrGr"/>
            <phase duration="10" state="grrGrrgrrrrGgrrGrrgrrrrGrrrrrrrrGr"/>
            <phase duration="10" state="gGGrrrgGGGrrrGGGrrgGGgrrGGGGGGGGGG"/>
            <phase duration="8" state="grrryrgrrrrrgrrryrgrrrrrrrrrrrrrrr"/>
            <phase duration="8" state="grrryygrryrrgrrrrrgrrrrrrrrrrrrrrr"/>
            <phase duration="8" state="grrrrrgrrrrrgrrryygrryrrrrrrrrrrrr"/>
            <phase duration="8" state="grrrrygrryrrgrrrrygrryrrrrrrrrrrrr"/>
            <phase duration="8" state="grrrrrgrrryrgrrrrrgrrryrrrrrrrrrrr"/>
            <phase duration="8" state="grrrrrgrrrrrgrrrrrgrryyyrrrrrrrrrr"/>
            <phase duration="8" state="grrrrrgrrryygrryrrgrrrrrrrrrrrrrrr"/>
            <phase duration="8" state="grryrrgrrrrygrryrrgrrrryrrrrrrrrrr"/>
            <phase duration="20" state="rrrrrrrrrrrrrrrrrrrrrrrrrrrrrrrrrr"/>
            <phase duration="30" state="gGGrGrgrrrrrgGGrGrgrrrrrrrrrrrGrrG"/>
            <phase duration="10" state="gGGrGGgrrGrrgrrrrrgrrrrrrrrrrrrrrG"/>
            <phase duration="10" state="grrrrrgrrrrrgGGrGGgrrGrrrrrrrrGrrr"/>
            <phase duration="10" state="grrrrGgrrGrrgrrrrGgrrGrrrrrrrrrrrr"/>
            <phase duration="30" state="grrrrrgGGrGrgrrrrrgGGrGrrrrrrrrrGr"/>
            <phase duration="10" state="grrGrrgrrrrrgrrrrrgGGrGGrrrrrrrrGr"/>
            <phase duration="10" state="grrrrrgGGrGGgrrGrrgrrrrrrrrrrrrrGr"/>
            <phase duration="10" state="grrGrrgrrrrGgrrGrrgrrrrGrrrrrrrrGr"/>
            <phase duration="10" state="rrrrrrrrrrrrrrrrrrrrrrrrrrrrrrrrrr"/>
                
   </tlLogic>
</additional>
