<additional>
   <tlLogic id="1" type="static" programID="my_program" offset="15">

                <phase duration="30" state="rGrrrrrGrrrrrrGrrG"/>
                <phase duration="10" state="rGGGrrrrrrrrrrrrrG"/>
                <phase duration="10" state="rrrrrrrGGGrrrrGrrr"/>
                <phase duration="10" state="rrGGrrrrGGrrrrrrrr"/>
                <phase duration="30" state="rrrrGrrrrrGrGrrrGr"/>
                <phase duration="10" state="GrrrrrrrrrGGrrrrGr"/>
                <phase duration="10" state="rrrrGGGrrrrrGrrrrr"/>
                <phase duration="10" state="GrrrrGGrrrrGrrrrrr"/>
                <phase duration="10" state="rrrrrrrrrrrrGGGGGG"/>
                <phase duration="8" state="ryrrrrryrrrrrrrrrr"/>
                <phase duration="8" state="ryyyrrrrrrrrrrrrrr"/>
                <phase duration="8" state="rrrrrrryyyrrrrrrrr"/>
                <phase duration="8" state="rryyrrrryyrrrrrrrr"/>
                <phase duration="8" state="rrrryrrrrryrrrrrrr"/>
                <phase duration="8" state="yrrrrrrrrryyrrrrrr"/>
                <phase duration="8" state="rrrryyyrrrrrrrrrrr"/>
                <phase duration="8" state="yrrrryyrrrryrrrrrr"/>
                <phase duration="20" state="rrrrrrrrrrrrrrrrrr"/>
                <phase duration="30" state="rGrrrrrGrrrrrrrrrr"/>
                <phase duration="10" state="rGGGrrrrrrrrrrrrrr"/>
                <phase duration="10" state="rrrrrrrGGGrrrrrrrr"/>
                <phase duration="10" state="rrGGrrrrGGrrrrrrrr"/>
                <phase duration="30" state="rrrrGrrrrrGrrrrrrr"/>
                <phase duration="10" state="GrrrrrrrrrGGrrrrrr"/>
                <phase duration="10" state="rrrrGGGrrrrrrrrrrr"/>
                <phase duration="10" state="GrrrrGGrrrrGrrrrrr"/>
                <phase duration="10" state="rrrrrrrrrrrrrrrrrr"/>
   </tlLogic>
</additional>
