<routes>
            <vType id="cars" accel="3" decel="5" sigma="1" length="5" minGap="2" maxSpeed="13" guiShape="passenger">
                    <param key="has.ssm.device" value="true"/>
                    <param key="device.ssm.measures" value="TTC DRAC PET BR SGAP TGAP PPET MDRAC"/>
                    <param key="device.ssm.thresholds" value="1 3.0 2.0 0.0 0.2 0.5 2.0 3.4"/>
            </vType>

            <route id="WE" edges="2_1 1_4" />
            <route id="WN" edges="2_1 1_5" />
            <route id="WS" edges="2_1 1_3" />
            <route id="SN" edges="3_1 1_5" />
            <route id="SW" edges="3_1 1_2" />
            <route id="SE" edges="3_1 1_4" />
            <route id="EW" edges="4_1 1_2" />
            <route id="ES" edges="4_1 1_3" />
            <route id="EN" edges="4_1 1_5" />
            <route id="NS" edges="5_1 1_3" />
            <route id="NE" edges="5_1 1_4" />
            <route id="NW" edges="5_1 1_2" />

            <route id="NS_ped" edges="5_1 :1_w0 :1_c5 :1_w3 1_3" />
            <route id="SN_ped" edges="3_1 :1_w2 :1_c2 :1_w1 1_5" />
            <route id="WE_ped" edges="2_1 :1_w3 :1_c4 :1_w2 1_4" />
            <route id="EW_ped" edges="4_1 :1_w1 :1_c0 :1_w0 1_2" />
            <route id="WN_ped_wn" edges="2_1 :1_w3 :1_c5 :1_w0 :1_c0 :1_w1 1_5" />
            <route id="WN_ped_se" edges="2_1 :1_w3 :1_c4 :1_w2 :1_c2 :1_w1 1_5" />
            <route id="SW_ped_sw" edges="3_1 :1_w2 :1_c4 :1_w3 :1_c5 :1_w0 1_2" />
            <route id="SW_ped_en" edges="3_1 :1_w2 :1_c2 :1_w1 :1_c0 :1_w0 1_2" />
            <route id="ES_ped_es" edges="4_1 :1_w1 :1_c2 :1_w2 :1_c4 :1_w3 1_3" />
            <route id="ES_ped_nw" edges="4_1 :1_w1 :1_c0 :1_w0 :1_c5 :1_w3 1_3" />
            <route id="NE_ped_ne" edges="5_1 :1_w0 :1_c0 :1_w1 :1_c2 :1_w2 1_4" />
            <route id="NE_ped_ws" edges="5_1 :1_w0 :1_c5 :1_w3 :1_c4 :1_w2 1_4" />
            <route id="WN_ped_diag" edges="2_1 :1_w3 :1_c1 :1_w1 1_5" />
            <route id="SW_ped_diag" edges="3_1 :1_w2 :1_c3 :1_w0 1_2" />
            <route id="ES_ped_diag" edges="4_1 :1_w1 :1_c1 :1_w3 1_3" />
            <route id="NE_ped_diag" edges="5_1 :1_w0 :1_c3 :1_w2 1_4" />

            
            <personFlow id="person_WE_s" begin="0" end="900" period="exp(0.10500000000000001)" departPos="100">
                <walk route="WE_ped"/>
             </personFlow>
            <personFlow id="person_EW_n" begin="0" end="900" period="exp(0.035)" departPos="100">
                <walk route="EW_ped"/>
            </personFlow>
            <personFlow id="person_NS_w" begin="0" end="900" period="exp(0.21000000000000002)" departPos="100">
                <walk route="NS_ped"/>
            </personFlow>
            <personFlow id="person_SN_e" begin="0" end="900" period="exp(0.07)" departPos="100">
                <walk route="SN_ped"/>
            </personFlow>   
            <personFlow id="person_WN_diag" begin="0" end="900" period="exp(0.10500000000000001)" departPos="100">
                <walk from="2_1" to="1_5"/>
            </personFlow>
            <personFlow id="person_SW_diag" begin="0" end="900" period="exp(0.10500000000000001)" departPos="100">
                <walk from="3_1" to="1_2"/>
            </personFlow>   
            <personFlow id="person_ES_diag" begin="0" end="900" period="exp(0.10500000000000001)" departPos="100">
                <walk from="4_1" to="1_3"/>
            </personFlow>       
            <personFlow id="person_NE_diag" begin="0" end="900" period="exp(0.10500000000000001)" departPos="100">
                <walk from="5_1" to="1_4"/>
            </personFlow>      
   
            
    <vehicle id="SN_0" type="cars" route="SN" depart="0" departLane="2" color="0,1,0"/>
    <vehicle id="WE_0" type="cars" route="WE" depart="1" departLane="2" color="0,1,0"/>
    <vehicle id="NS_1" type="cars" route="NS" depart="1" departLane="2" color="0,1,0"/>
    <vehicle id="SN_2" type="cars" route="SN" depart="5" departLane="2" color="0,1,0"/>
    <vehicle id="WS_3" type="cars" route="WS" depart="7" departLane="1" color="0,1,0"/>
    <vehicle id="WE_1" type="cars" route="WE" depart="10" departLane="2" color="0,1,0"/>
    <vehicle id="WE_2" type="cars" route="WE" depart="12" departLane="2" color="0,1,0"/>
    <vehicle id="ES_4" type="cars" route="ES" depart="14" departLane="3" color="0,1,0"/>
    <vehicle id="WS_5" type="cars" route="WS" depart="16" departLane="1" color="0,1,0"/>
    <vehicle id="WE_3" type="cars" route="WE" depart="19" departLane="2" color="0,1,0"/>
    <vehicle id="NE_6" type="cars" route="NE" depart="20" departLane="3" color="0,1,0"/>
    <vehicle id="NS_7" type="cars" route="NS" depart="22" departLane="2" color="0,1,0"/>
    <vehicle id="SN_8" type="cars" route="SN" depart="25" departLane="2" color="0,1,0"/>
    <vehicle id="WE_4" type="cars" route="WE" depart="26" departLane="2" color="0,1,0"/>
    <vehicle id="SN_9" type="cars" route="SN" depart="26" departLane="2" color="0,1,0"/>
    <vehicle id="WE_5" type="cars" route="WE" depart="29" departLane="2" color="0,1,0"/>
    <vehicle id="SN_10" type="cars" route="SN" depart="29" departLane="2" color="0,1,0"/>
    <vehicle id="WE_6" type="cars" route="WE" depart="30" departLane="2" color="0,1,0"/>
    <vehicle id="SN_11" type="cars" route="SN" depart="30" departLane="2" color="0,1,0"/>
    <vehicle id="EW_0" type="cars" route="EW" depart="32" departLane="2" color="0,1,0"/>
    <vehicle id="NS_12" type="cars" route="NS" depart="34" departLane="2" color="0,1,0"/>
    <vehicle id="SE_13" type="cars" route="SE" depart="36" departLane="1" color="0,1,0"/>
    <vehicle id="EW_1" type="cars" route="EW" depart="37" departLane="2" color="0,1,0"/>
    <vehicle id="SN_14" type="cars" route="SN" depart="38" departLane="2" color="0,1,0"/>
    <vehicle id="SE_15" type="cars" route="SE" depart="39" departLane="1" color="0,1,0"/>
    <vehicle id="SN_16" type="cars" route="SN" depart="40" departLane="2" color="0,1,0"/>
    <vehicle id="EW_2" type="cars" route="EW" depart="42" departLane="2" color="0,1,0"/>
    <vehicle id="EW_3" type="cars" route="EW" depart="46" departLane="2" color="0,1,0"/>
    <vehicle id="WE_7" type="cars" route="WE" depart="50" departLane="2" color="0,1,0"/>
    <vehicle id="NW_17" type="cars" route="NW" depart="53" departLane="1" color="0,1,0"/>
    <vehicle id="SN_18" type="cars" route="SN" depart="60" departLane="2" color="0,1,0"/>
    <vehicle id="EW_4" type="cars" route="EW" depart="62" departLane="2" color="0,1,0"/>
    <vehicle id="NS_19" type="cars" route="NS" depart="66" departLane="2" color="0,1,0"/>
    <vehicle id="NW_20" type="cars" route="NW" depart="69" departLane="1" color="0,1,0"/>
    <vehicle id="SN_21" type="cars" route="SN" depart="75" departLane="2" color="0,1,0"/>
    <vehicle id="WE_8" type="cars" route="WE" depart="78" departLane="2" color="0,1,0"/>
    <vehicle id="WS_22" type="cars" route="WS" depart="79" departLane="1" color="0,1,0"/>
    <vehicle id="EW_5" type="cars" route="EW" depart="82" departLane="2" color="0,1,0"/>
    <vehicle id="WE_9" type="cars" route="WE" depart="83" departLane="2" color="0,1,0"/>
    <vehicle id="SN_23" type="cars" route="SN" depart="83" departLane="2" color="0,1,0"/>
    <vehicle id="WE_10" type="cars" route="WE" depart="84" departLane="2" color="0,1,0"/>
    <vehicle id="NS_24" type="cars" route="NS" depart="84" departLane="2" color="0,1,0"/>
    <vehicle id="WE_11" type="cars" route="WE" depart="85" departLane="2" color="0,1,0"/>
    <vehicle id="EW_6" type="cars" route="EW" depart="91" departLane="2" color="0,1,0"/>
    <vehicle id="NS_25" type="cars" route="NS" depart="92" departLane="2" color="0,1,0"/>
    <vehicle id="EW_7" type="cars" route="EW" depart="96" departLane="2" color="0,1,0"/>
    <vehicle id="WE_12" type="cars" route="WE" depart="98" departLane="2" color="0,1,0"/>
    <vehicle id="EW_8" type="cars" route="EW" depart="98" departLane="2" color="0,1,0"/>
    <vehicle id="EN_26" type="cars" route="EN" depart="99" departLane="1" color="0,1,0"/>
    <vehicle id="SE_27" type="cars" route="SE" depart="101" departLane="1" color="0,1,0"/>
    <vehicle id="SN_28" type="cars" route="SN" depart="105" departLane="2" color="0,1,0"/>
    <vehicle id="EW_9" type="cars" route="EW" depart="108" departLane="2" color="0,1,0"/>
    <vehicle id="SN_29" type="cars" route="SN" depart="109" departLane="2" color="0,1,0"/>
    <vehicle id="NS_30" type="cars" route="NS" depart="111" departLane="2" color="0,1,0"/>
    <vehicle id="EW_10" type="cars" route="EW" depart="112" departLane="2" color="0,1,0"/>
    <vehicle id="EW_11" type="cars" route="EW" depart="113" departLane="2" color="0,1,0"/>
    <vehicle id="EN_31" type="cars" route="EN" depart="117" departLane="1" color="0,1,0"/>
    <vehicle id="NS_32" type="cars" route="NS" depart="118" departLane="2" color="0,1,0"/>
    <vehicle id="EW_12" type="cars" route="EW" depart="119" departLane="2" color="0,1,0"/>
    <vehicle id="WE_13" type="cars" route="WE" depart="121" departLane="2" color="0,1,0"/>
    <vehicle id="SE_33" type="cars" route="SE" depart="122" departLane="1" color="0,1,0"/>
    <vehicle id="WE_14" type="cars" route="WE" depart="123" departLane="2" color="0,1,0"/>
    <vehicle id="WN_34" type="cars" route="WN" depart="123" departLane="3" color="0,1,0"/>
    <vehicle id="SN_35" type="cars" route="SN" depart="124" departLane="2" color="0,1,0"/>
    <vehicle id="NS_36" type="cars" route="NS" depart="128" departLane="2" color="0,1,0"/>
    <vehicle id="SN_37" type="cars" route="SN" depart="128" departLane="2" color="0,1,0"/>
    <vehicle id="WE_15" type="cars" route="WE" depart="132" departLane="2" color="0,1,0"/>
    <vehicle id="WS_38" type="cars" route="WS" depart="133" departLane="1" color="0,1,0"/>
    <vehicle id="SN_39" type="cars" route="SN" depart="134" departLane="2" color="0,1,0"/>
    <vehicle id="WE_16" type="cars" route="WE" depart="135" departLane="2" color="0,1,0"/>
    <vehicle id="ES_40" type="cars" route="ES" depart="135" departLane="3" color="0,1,0"/>
    <vehicle id="WE_17" type="cars" route="WE" depart="137" departLane="2" color="0,1,0"/>
    <vehicle id="NS_41" type="cars" route="NS" depart="145" departLane="2" color="0,1,0"/>
    <vehicle id="NW_42" type="cars" route="NW" depart="145" departLane="1" color="0,1,0"/>
    <vehicle id="NS_43" type="cars" route="NS" depart="150" departLane="2" color="0,1,0"/>
    <vehicle id="NW_44" type="cars" route="NW" depart="150" departLane="1" color="0,1,0"/>
    <vehicle id="NS_45" type="cars" route="NS" depart="151" departLane="2" color="0,1,0"/>
    <vehicle id="EW_13" type="cars" route="EW" depart="154" departLane="2" color="0,1,0"/>
    <vehicle id="NS_46" type="cars" route="NS" depart="154" departLane="2" color="0,1,0"/>
    <vehicle id="WE_18" type="cars" route="WE" depart="155" departLane="2" color="0,1,0"/>
    <vehicle id="SW_47" type="cars" route="SW" depart="155" departLane="3" color="0,1,0"/>
    <vehicle id="WE_19" type="cars" route="WE" depart="156" departLane="2" color="0,1,0"/>
    <vehicle id="SE_48" type="cars" route="SE" depart="157" departLane="1" color="0,1,0"/>
    <vehicle id="WE_20" type="cars" route="WE" depart="158" departLane="2" color="0,1,0"/>
    <vehicle id="WE_21" type="cars" route="WE" depart="161" departLane="2" color="0,1,0"/>
    <vehicle id="SN_49" type="cars" route="SN" depart="162" departLane="2" color="0,1,0"/>
    <vehicle id="EW_14" type="cars" route="EW" depart="163" departLane="2" color="0,1,0"/>
    <vehicle id="SN_50" type="cars" route="SN" depart="171" departLane="2" color="0,1,0"/>
    <vehicle id="WS_51" type="cars" route="WS" depart="172" departLane="1" color="0,1,0"/>
    <vehicle id="WE_22" type="cars" route="WE" depart="173" departLane="2" color="0,1,0"/>
    <vehicle id="EW_15" type="cars" route="EW" depart="174" departLane="2" color="0,1,0"/>
    <vehicle id="SW_52" type="cars" route="SW" depart="174" departLane="3" color="0,1,0"/>
    <vehicle id="NS_53" type="cars" route="NS" depart="176" departLane="2" color="0,1,0"/>
    <vehicle id="SN_54" type="cars" route="SN" depart="176" departLane="2" color="0,1,0"/>
    <vehicle id="WE_23" type="cars" route="WE" depart="179" departLane="2" color="0,1,0"/>
    <vehicle id="SN_55" type="cars" route="SN" depart="182" departLane="2" color="0,1,0"/>
    <vehicle id="SN_56" type="cars" route="SN" depart="183" departLane="2" color="0,1,0"/>
    <vehicle id="SW_57" type="cars" route="SW" depart="183" departLane="3" color="0,1,0"/>
    <vehicle id="NS_58" type="cars" route="NS" depart="187" departLane="2" color="0,1,0"/>
    <vehicle id="EN_59" type="cars" route="EN" depart="189" departLane="1" color="0,1,0"/>
    <vehicle id="EW_16" type="cars" route="EW" depart="190" departLane="2" color="0,1,0"/>
    <vehicle id="NS_60" type="cars" route="NS" depart="193" departLane="2" color="0,1,0"/>
    <vehicle id="SN_61" type="cars" route="SN" depart="195" departLane="2" color="0,1,0"/>
    <vehicle id="EN_62" type="cars" route="EN" depart="197" departLane="1" color="0,1,0"/>
    <vehicle id="SN_63" type="cars" route="SN" depart="198" departLane="2" color="0,1,0"/>
    <vehicle id="NS_64" type="cars" route="NS" depart="199" departLane="2" color="0,1,0"/>
    <vehicle id="SE_65" type="cars" route="SE" depart="199" departLane="1" color="0,1,0"/>
    <vehicle id="SE_66" type="cars" route="SE" depart="200" departLane="1" color="0,1,0"/>
    <vehicle id="EW_17" type="cars" route="EW" depart="201" departLane="2" color="0,1,0"/>
    <vehicle id="WE_24" type="cars" route="WE" depart="202" departLane="2" color="0,1,0"/>
    <vehicle id="EW_18" type="cars" route="EW" depart="202" departLane="2" color="0,1,0"/>
    <vehicle id="EN_67" type="cars" route="EN" depart="202" departLane="1" color="0,1,0"/>
    <vehicle id="NS_68" type="cars" route="NS" depart="202" departLane="2" color="0,1,0"/>
    <vehicle id="SE_69" type="cars" route="SE" depart="202" departLane="1" color="0,1,0"/>
    <vehicle id="WE_25" type="cars" route="WE" depart="204" departLane="2" color="0,1,0"/>
    <vehicle id="EW_19" type="cars" route="EW" depart="206" departLane="2" color="0,1,0"/>
    <vehicle id="NS_70" type="cars" route="NS" depart="211" departLane="2" color="0,1,0"/>
    <vehicle id="WE_26" type="cars" route="WE" depart="213" departLane="2" color="0,1,0"/>
    <vehicle id="NS_71" type="cars" route="NS" depart="214" departLane="2" color="0,1,0"/>
    <vehicle id="NS_72" type="cars" route="NS" depart="218" departLane="2" color="0,1,0"/>
    <vehicle id="SN_73" type="cars" route="SN" depart="219" departLane="2" color="0,1,0"/>
    <vehicle id="EW_20" type="cars" route="EW" depart="220" departLane="2" color="0,1,0"/>
    <vehicle id="EW_21" type="cars" route="EW" depart="221" departLane="2" color="0,1,0"/>
    <vehicle id="SN_74" type="cars" route="SN" depart="223" departLane="2" color="0,1,0"/>
    <vehicle id="WS_75" type="cars" route="WS" depart="224" departLane="1" color="0,1,0"/>
    <vehicle id="NW_76" type="cars" route="NW" depart="227" departLane="1" color="0,1,0"/>
    <vehicle id="ES_77" type="cars" route="ES" depart="231" departLane="3" color="0,1,0"/>
    <vehicle id="WE_27" type="cars" route="WE" depart="232" departLane="2" color="0,1,0"/>
    <vehicle id="SN_78" type="cars" route="SN" depart="234" departLane="2" color="0,1,0"/>
    <vehicle id="SN_79" type="cars" route="SN" depart="238" departLane="2" color="0,1,0"/>
    <vehicle id="NS_80" type="cars" route="NS" depart="240" departLane="2" color="0,1,0"/>
    <vehicle id="WE_28" type="cars" route="WE" depart="243" departLane="2" color="0,1,0"/>
    <vehicle id="SN_81" type="cars" route="SN" depart="243" departLane="2" color="0,1,0"/>
    <vehicle id="EW_22" type="cars" route="EW" depart="247" departLane="2" color="0,1,0"/>
    <vehicle id="SE_82" type="cars" route="SE" depart="247" departLane="1" color="0,1,0"/>
    <vehicle id="SW_83" type="cars" route="SW" depart="252" departLane="3" color="0,1,0"/>
    <vehicle id="SE_84" type="cars" route="SE" depart="252" departLane="1" color="0,1,0"/>
    <vehicle id="WE_29" type="cars" route="WE" depart="253" departLane="2" color="0,1,0"/>
    <vehicle id="SE_85" type="cars" route="SE" depart="253" departLane="1" color="0,1,0"/>
    <vehicle id="WE_30" type="cars" route="WE" depart="259" departLane="2" color="0,1,0"/>
    <vehicle id="EW_23" type="cars" route="EW" depart="259" departLane="2" color="0,1,0"/>
    <vehicle id="WE_31" type="cars" route="WE" depart="261" departLane="2" color="0,1,0"/>
    <vehicle id="NW_86" type="cars" route="NW" depart="262" departLane="1" color="0,1,0"/>
    <vehicle id="NS_87" type="cars" route="NS" depart="263" departLane="2" color="0,1,0"/>
    <vehicle id="EW_24" type="cars" route="EW" depart="264" departLane="2" color="0,1,0"/>
    <vehicle id="WE_32" type="cars" route="WE" depart="266" departLane="2" color="0,1,0"/>
    <vehicle id="WE_33" type="cars" route="WE" depart="268" departLane="2" color="0,1,0"/>
    <vehicle id="SE_88" type="cars" route="SE" depart="268" departLane="1" color="0,1,0"/>
    <vehicle id="NE_89" type="cars" route="NE" depart="269" departLane="3" color="0,1,0"/>
    <vehicle id="ES_90" type="cars" route="ES" depart="270" departLane="3" color="0,1,0"/>
    <vehicle id="SN_91" type="cars" route="SN" depart="270" departLane="2" color="0,1,0"/>
    <vehicle id="NS_92" type="cars" route="NS" depart="271" departLane="2" color="0,1,0"/>
    <vehicle id="SN_93" type="cars" route="SN" depart="271" departLane="2" color="0,1,0"/>
    <vehicle id="EW_25" type="cars" route="EW" depart="275" departLane="2" color="0,1,0"/>
    <vehicle id="SN_94" type="cars" route="SN" depart="276" departLane="2" color="0,1,0"/>
    <vehicle id="ES_95" type="cars" route="ES" depart="277" departLane="3" color="0,1,0"/>
    <vehicle id="ES_96" type="cars" route="ES" depart="278" departLane="3" color="0,1,0"/>
    <vehicle id="NS_97" type="cars" route="NS" depart="280" departLane="2" color="0,1,0"/>
    <vehicle id="NW_98" type="cars" route="NW" depart="281" departLane="1" color="0,1,0"/>
    <vehicle id="WE_34" type="cars" route="WE" depart="282" departLane="2" color="0,1,0"/>
    <vehicle id="EW_26" type="cars" route="EW" depart="282" departLane="2" color="0,1,0"/>
    <vehicle id="WE_35" type="cars" route="WE" depart="283" departLane="2" color="0,1,0"/>
    <vehicle id="NS_99" type="cars" route="NS" depart="285" departLane="2" color="0,1,0"/>
    <vehicle id="SN_100" type="cars" route="SN" depart="286" departLane="2" color="0,1,0"/>
    <vehicle id="NS_101" type="cars" route="NS" depart="287" departLane="2" color="0,1,0"/>
    <vehicle id="WE_36" type="cars" route="WE" depart="290" departLane="2" color="0,1,0"/>
    <vehicle id="SN_102" type="cars" route="SN" depart="290" departLane="2" color="0,1,0"/>
    <vehicle id="NS_103" type="cars" route="NS" depart="294" departLane="2" color="0,1,0"/>
    <vehicle id="WE_37" type="cars" route="WE" depart="296" departLane="2" color="0,1,0"/>
    <vehicle id="NS_104" type="cars" route="NS" depart="301" departLane="2" color="0,1,0"/>
    <vehicle id="SN_105" type="cars" route="SN" depart="302" departLane="2" color="0,1,0"/>
    <vehicle id="EW_27" type="cars" route="EW" depart="305" departLane="2" color="0,1,0"/>
    <vehicle id="EW_28" type="cars" route="EW" depart="307" departLane="2" color="0,1,0"/>
    <vehicle id="WS_106" type="cars" route="WS" depart="308" departLane="1" color="0,1,0"/>
    <vehicle id="SN_107" type="cars" route="SN" depart="309" departLane="2" color="0,1,0"/>
    <vehicle id="NS_108" type="cars" route="NS" depart="311" departLane="2" color="0,1,0"/>
    <vehicle id="SN_109" type="cars" route="SN" depart="311" departLane="2" color="0,1,0"/>
    <vehicle id="WE_38" type="cars" route="WE" depart="312" departLane="2" color="0,1,0"/>
    <vehicle id="ES_110" type="cars" route="ES" depart="313" departLane="3" color="0,1,0"/>
    <vehicle id="SN_111" type="cars" route="SN" depart="313" departLane="2" color="0,1,0"/>
    <vehicle id="SN_112" type="cars" route="SN" depart="317" departLane="2" color="0,1,0"/>
    <vehicle id="WE_39" type="cars" route="WE" depart="318" departLane="2" color="0,1,0"/>
    <vehicle id="WS_113" type="cars" route="WS" depart="318" departLane="1" color="0,1,0"/>
    <vehicle id="NS_114" type="cars" route="NS" depart="319" departLane="2" color="0,1,0"/>
    <vehicle id="SN_115" type="cars" route="SN" depart="319" departLane="2" color="0,1,0"/>
    <vehicle id="ES_116" type="cars" route="ES" depart="325" departLane="3" color="0,1,0"/>
    <vehicle id="SN_117" type="cars" route="SN" depart="327" departLane="2" color="0,1,0"/>
    <vehicle id="EW_29" type="cars" route="EW" depart="329" departLane="2" color="0,1,0"/>
    <vehicle id="EW_30" type="cars" route="EW" depart="330" departLane="2" color="0,1,0"/>
    <vehicle id="WE_40" type="cars" route="WE" depart="331" departLane="2" color="0,1,0"/>
    <vehicle id="WE_41" type="cars" route="WE" depart="332" departLane="2" color="0,1,0"/>
    <vehicle id="SN_118" type="cars" route="SN" depart="335" departLane="2" color="0,1,0"/>
    <vehicle id="WE_42" type="cars" route="WE" depart="337" departLane="2" color="0,1,0"/>
    <vehicle id="NS_119" type="cars" route="NS" depart="337" departLane="2" color="0,1,0"/>
    <vehicle id="NS_120" type="cars" route="NS" depart="339" departLane="2" color="0,1,0"/>
    <vehicle id="SN_121" type="cars" route="SN" depart="339" departLane="2" color="0,1,0"/>
    <vehicle id="EW_31" type="cars" route="EW" depart="346" departLane="2" color="0,1,0"/>
    <vehicle id="ES_122" type="cars" route="ES" depart="346" departLane="3" color="0,1,0"/>
    <vehicle id="NW_123" type="cars" route="NW" depart="346" departLane="1" color="0,1,0"/>
    <vehicle id="WE_43" type="cars" route="WE" depart="347" departLane="2" color="0,1,0"/>
    <vehicle id="SN_124" type="cars" route="SN" depart="348" departLane="2" color="0,1,0"/>
    <vehicle id="SN_125" type="cars" route="SN" depart="350" departLane="2" color="0,1,0"/>
    <vehicle id="NW_126" type="cars" route="NW" depart="351" departLane="1" color="0,1,0"/>
    <vehicle id="WN_127" type="cars" route="WN" depart="353" departLane="3" color="0,1,0"/>
    <vehicle id="NW_128" type="cars" route="NW" depart="354" departLane="1" color="0,1,0"/>
    <vehicle id="EN_129" type="cars" route="EN" depart="355" departLane="1" color="0,1,0"/>
    <vehicle id="NW_130" type="cars" route="NW" depart="355" departLane="1" color="0,1,0"/>
    <vehicle id="NS_131" type="cars" route="NS" depart="358" departLane="2" color="0,1,0"/>
    <vehicle id="SN_132" type="cars" route="SN" depart="358" departLane="2" color="0,1,0"/>
    <vehicle id="WE_44" type="cars" route="WE" depart="364" departLane="2" color="0,1,0"/>
    <vehicle id="WE_45" type="cars" route="WE" depart="365" departLane="2" color="0,1,0"/>
    <vehicle id="NS_133" type="cars" route="NS" depart="368" departLane="2" color="0,1,0"/>
    <vehicle id="SN_134" type="cars" route="SN" depart="369" departLane="2" color="0,1,0"/>
    <vehicle id="EW_32" type="cars" route="EW" depart="371" departLane="2" color="0,1,0"/>
    <vehicle id="SE_135" type="cars" route="SE" depart="372" departLane="1" color="0,1,0"/>
    <vehicle id="SN_136" type="cars" route="SN" depart="373" departLane="2" color="0,1,0"/>
    <vehicle id="NS_137" type="cars" route="NS" depart="374" departLane="2" color="0,1,0"/>
    <vehicle id="NS_138" type="cars" route="NS" depart="376" departLane="2" color="0,1,0"/>
    <vehicle id="SN_139" type="cars" route="SN" depart="377" departLane="2" color="0,1,0"/>
    <vehicle id="NS_140" type="cars" route="NS" depart="378" departLane="2" color="0,1,0"/>
    <vehicle id="NS_141" type="cars" route="NS" depart="380" departLane="2" color="0,1,0"/>
    <vehicle id="NW_142" type="cars" route="NW" depart="381" departLane="1" color="0,1,0"/>
    <vehicle id="NS_143" type="cars" route="NS" depart="383" departLane="2" color="0,1,0"/>
    <vehicle id="EW_33" type="cars" route="EW" depart="384" departLane="2" color="0,1,0"/>
    <vehicle id="NW_144" type="cars" route="NW" depart="384" departLane="1" color="0,1,0"/>
    <vehicle id="SE_145" type="cars" route="SE" depart="384" departLane="1" color="0,1,0"/>
    <vehicle id="NS_146" type="cars" route="NS" depart="394" departLane="2" color="0,1,0"/>
    <vehicle id="WE_46" type="cars" route="WE" depart="396" departLane="2" color="0,1,0"/>
    <vehicle id="WE_47" type="cars" route="WE" depart="398" departLane="2" color="0,1,0"/>
    <vehicle id="NW_147" type="cars" route="NW" depart="398" departLane="1" color="0,1,0"/>
    <vehicle id="WE_48" type="cars" route="WE" depart="400" departLane="2" color="0,1,0"/>
    <vehicle id="WE_49" type="cars" route="WE" depart="404" departLane="2" color="0,1,0"/>
    <vehicle id="WE_50" type="cars" route="WE" depart="405" departLane="2" color="0,1,0"/>
    <vehicle id="SN_148" type="cars" route="SN" depart="406" departLane="2" color="0,1,0"/>
    <vehicle id="EW_34" type="cars" route="EW" depart="409" departLane="2" color="0,1,0"/>
    <vehicle id="WE_51" type="cars" route="WE" depart="411" departLane="2" color="0,1,0"/>
    <vehicle id="NS_149" type="cars" route="NS" depart="413" departLane="2" color="0,1,0"/>
    <vehicle id="SE_150" type="cars" route="SE" depart="413" departLane="1" color="0,1,0"/>
    <vehicle id="SN_151" type="cars" route="SN" depart="418" departLane="2" color="0,1,0"/>
    <vehicle id="SN_152" type="cars" route="SN" depart="421" departLane="2" color="0,1,0"/>
    <vehicle id="SN_153" type="cars" route="SN" depart="422" departLane="2" color="0,1,0"/>
    <vehicle id="SE_154" type="cars" route="SE" depart="423" departLane="1" color="0,1,0"/>
    <vehicle id="SN_155" type="cars" route="SN" depart="424" departLane="2" color="0,1,0"/>
    <vehicle id="EW_35" type="cars" route="EW" depart="429" departLane="2" color="0,1,0"/>
    <vehicle id="WE_52" type="cars" route="WE" depart="430" departLane="2" color="0,1,0"/>
    <vehicle id="EW_36" type="cars" route="EW" depart="431" departLane="2" color="0,1,0"/>
    <vehicle id="WE_53" type="cars" route="WE" depart="434" departLane="2" color="0,1,0"/>
    <vehicle id="SE_156" type="cars" route="SE" depart="436" departLane="1" color="0,1,0"/>
    <vehicle id="EW_37" type="cars" route="EW" depart="437" departLane="2" color="0,1,0"/>
    <vehicle id="SN_157" type="cars" route="SN" depart="437" departLane="2" color="0,1,0"/>
    <vehicle id="WE_54" type="cars" route="WE" depart="441" departLane="2" color="0,1,0"/>
    <vehicle id="WN_158" type="cars" route="WN" depart="442" departLane="3" color="0,1,0"/>
    <vehicle id="WE_55" type="cars" route="WE" depart="444" departLane="2" color="0,1,0"/>
    <vehicle id="EW_38" type="cars" route="EW" depart="445" departLane="2" color="0,1,0"/>
    <vehicle id="SN_159" type="cars" route="SN" depart="447" departLane="2" color="0,1,0"/>
    <vehicle id="SW_160" type="cars" route="SW" depart="447" departLane="3" color="0,1,0"/>
    <vehicle id="WE_56" type="cars" route="WE" depart="449" departLane="2" color="0,1,0"/>
    <vehicle id="NS_161" type="cars" route="NS" depart="449" departLane="2" color="0,1,0"/>
    <vehicle id="NE_162" type="cars" route="NE" depart="449" departLane="3" color="0,1,0"/>
    <vehicle id="NW_163" type="cars" route="NW" depart="449" departLane="1" color="0,1,0"/>
    <vehicle id="EW_39" type="cars" route="EW" depart="451" departLane="2" color="0,1,0"/>
    <vehicle id="WE_57" type="cars" route="WE" depart="452" departLane="2" color="0,1,0"/>
    <vehicle id="SW_164" type="cars" route="SW" depart="455" departLane="3" color="0,1,0"/>
    <vehicle id="SW_165" type="cars" route="SW" depart="461" departLane="3" color="0,1,0"/>
    <vehicle id="NE_166" type="cars" route="NE" depart="463" departLane="3" color="0,1,0"/>
    <vehicle id="NS_167" type="cars" route="NS" depart="467" departLane="2" color="0,1,0"/>
    <vehicle id="SN_168" type="cars" route="SN" depart="471" departLane="2" color="0,1,0"/>
    <vehicle id="NS_169" type="cars" route="NS" depart="474" departLane="2" color="0,1,0"/>
    <vehicle id="SN_170" type="cars" route="SN" depart="475" departLane="2" color="0,1,0"/>
    <vehicle id="EW_40" type="cars" route="EW" depart="477" departLane="2" color="0,1,0"/>
    <vehicle id="SN_171" type="cars" route="SN" depart="478" departLane="2" color="0,1,0"/>
    <vehicle id="WS_172" type="cars" route="WS" depart="481" departLane="1" color="0,1,0"/>
    <vehicle id="WE_58" type="cars" route="WE" depart="483" departLane="2" color="0,1,0"/>
    <vehicle id="EW_41" type="cars" route="EW" depart="484" departLane="2" color="0,1,0"/>
    <vehicle id="EW_42" type="cars" route="EW" depart="485" departLane="2" color="0,1,0"/>
    <vehicle id="WE_59" type="cars" route="WE" depart="486" departLane="2" color="0,1,0"/>
    <vehicle id="SN_173" type="cars" route="SN" depart="491" departLane="2" color="0,1,0"/>
    <vehicle id="WE_60" type="cars" route="WE" depart="493" departLane="2" color="0,1,0"/>
    <vehicle id="SN_174" type="cars" route="SN" depart="494" departLane="2" color="0,1,0"/>
    <vehicle id="WE_61" type="cars" route="WE" depart="495" departLane="2" color="0,1,0"/>
    <vehicle id="EW_43" type="cars" route="EW" depart="496" departLane="2" color="0,1,0"/>
    <vehicle id="SW_175" type="cars" route="SW" depart="498" departLane="3" color="0,1,0"/>
    <vehicle id="WN_176" type="cars" route="WN" depart="499" departLane="3" color="0,1,0"/>
    <vehicle id="SN_177" type="cars" route="SN" depart="500" departLane="2" color="0,1,0"/>
    <vehicle id="NS_178" type="cars" route="NS" depart="504" departLane="2" color="0,1,0"/>
    <vehicle id="WE_62" type="cars" route="WE" depart="505" departLane="2" color="0,1,0"/>
    <vehicle id="EW_44" type="cars" route="EW" depart="505" departLane="2" color="0,1,0"/>
    <vehicle id="NS_179" type="cars" route="NS" depart="505" departLane="2" color="0,1,0"/>
    <vehicle id="WE_63" type="cars" route="WE" depart="506" departLane="2" color="0,1,0"/>