<additional>
   <tlLogic id="1" type="static" programID="my_program" offset="15">

            <phase duration="30" state="gGGgGrgrrrrrgGGgGrgGrrrrrrGrrGGrrG"/>
            <phase duration="10" state="gGGgGGgrrrrrgrrrrrgrrrrrrrrrrGrrrG"/>
            <phase duration="10" state="grrrrrgrrrrrgGGgGGgrrrrrrrGrrrGrrr"/>
            <phase duration="10" state="grrrrGgrrrrrgrrrrGgrrrrrrrrrrrrrrr"/>
            <phase duration="30" state="grrrrrgGGgGrgrrrrrgGGgGrGrrrGrrrGr"/>
            <phase duration="10" state="grrrrrgrrrrrgrrrrrgGGgGGrrrrGrrrGr"/>
            <phase duration="10" state="grrrrrgGGgGGgrrrrrgrrrrrGrrrrrrrGr"/>
            <phase duration="10" state="grrrrrgrrrrGgrrrrrgrrrrGrrrrrrrrGr"/>
            <phase duration="10" state="gGGrrrgGGGrrrGGGrrgGGgrrGGGGGGGGGG"/>
            <phase duration="8" state="grryyrgrrrrrgrryyrgrrrrrrrrrrrGrrG"/>
            <phase duration="8" state="grryyygrrrrrgrrrrrgrrrrrrrrrrrrrrr"/>
            <phase duration="8" state="grrrrrgrrrrrgrryyygrrrrrrrrrrrGrrr"/>
            <phase duration="8" state="grrrrygrrrrrgrrrrygrrrrrrrrrrrrrrr"/>
            <phase duration="8" state="grrrrrgrryyrgrrrrrgrryyrrrrrrrrrGr"/>
            <phase duration="8" state="grrrrrgrrrrrgrrrrrgrryyyrrrrrrrrGr"/>
            <phase duration="8" state="grrrrrgrryyygrrrrrgrrrrrrrrrrrrrGr"/>
            <phase duration="8" state="grrrrrgrrrrygrrrrrgrrrryrrrrrrrrGr"/>
            <phase duration="20" state="rrrrrrrrrrrrrrrrrrrrrrrrrrrrrrrrrr"/>
            <phase duration="30" state="gGGgGrgrrrrrgGGgGrgGrrrrrrrrrrGrrG"/>
            <phase duration="10" state="gGGgGGgrrrrrgrrrrrgrrrrrrrrrrrrrrG"/>
            <phase duration="10" state="grrrrrgrrrrrgGGgGGgrrrrrrrrrrrGrrr"/>
            <phase duration="10" state="grrrrGgrrrrrgrrrrGgrrrrrrrrrrrrrrr"/>
            <phase duration="30" state="grrrrrgGGgGrgrrrrrgGGgGrrrrrrrrrGr"/>
            <phase duration="10" state="grrrrrgrrrrrgrrrrrgGGgGGrrrrrrrrGr"/>
            <phase duration="10" state="grrrrrgGGgGGgrrrrrgrrrrrrrrrrrrrGr"/>
            <phase duration="10" state="grrrrrgrrrrGgrrrrrgrrrrGrrrrrrrrGr"/>
            <phase duration="10" state="rrrrrrrrrrrrrrrrrrrrrrrrrrrrrrrrrr"/>
            <phase duration="8" state="gGGrGrgrrrrrgGGrGrgGrrrrrrGrrGGrrG"/>
            <phase duration="8" state="gGGrGGgrrrrrgrrrrrgrrrrrrrrrrGrrrG"/>
            <phase duration="8" state="grrrrrgrrrrrgGGrGGgrrrrrrrGrrrGrrr"/>
            <phase duration="8" state="grrrrGgrrrrrgrrrrGgrrrrrrrrrrrrrrr"/>
            <phase duration="8" state="grrrrrgGGrGrgrrrrrgGGrGrGrrrGrrrGr"/>
            <phase duration="8" state="grrrrrgrrrrrgrrrrrgGGrGGrrrrGrrrGr"/>
            <phase duration="8" state="grrrrrgGGrGGgrrrrrgrrrrrGrrrrrrrGr"/>
            <phase duration="8" state="grrrrrgrrrrGgrrrrrgrrrrGrrrrrrrrGr"/>
            <phase duration="20" state="rrrrrrrrrrrrrrrrrrrrrrrrrrrrrrrrrr"/>
                
   </tlLogic>
</additional>
