<additional>
   <tlLogic id="1" type="static" programID="my_program" offset="15">

                <phase duration="30" state="gGrrrrgGrrrrrrGrrG"/>
                <phase duration="10" state="gGGGrrrrrrrrrrrrrG"/>
                <phase duration="10" state="rrrrrrgGGGrrrrGrrr"/>
                <phase duration="10" state="rrGGrrrrGGrrrrrrrr"/>
                <phase duration="30" state="rrrgGrrrrgGrGrrrGr"/>
                <phase duration="10" state="GrrrrrrrrgGGrrrrGr"/>
                <phase duration="10" state="rrrgGGGrrrrrGrrrrr"/>
                <phase duration="10" state="GrrrrGGrrrrGrrrrrr"/>
                <phase duration="10" state="rrrrrrrrrrrrGGGGGG"/>
                <phase duration="8" state="yyrrrryyrrrrrrrrrr"/>
                <phase duration="8" state="yyyyrrrrrrrrrrrrrr"/>
                <phase duration="8" state="rrrrrryyyyrrrrrrrr"/>
                <phase duration="8" state="rryyrrrryyrrrrrrrr"/>
                <phase duration="8" state="rrryyrrrryyrrrrrrr"/>
                <phase duration="8" state="yrrrrrrrryyyrrrrrr"/>
                <phase duration="8" state="rrryyyyrrrrrrrrrrr"/>
                <phase duration="8" state="yrrrryyrrrryrrrrrr"/>
                <phase duration="20" state="rrrrrrrrrrrrrrrrrr"/>
                <phase duration="30" state="gGrrrrgGrrrrrrrrrr"/>
                <phase duration="10" state="gGGGrrrrrrrrrrrrrr"/>
                <phase duration="10" state="rrrrrrgGGGrrrrrrrr"/>
                <phase duration="10" state="rrGGrrrrGGrrrrrrrr"/>
                <phase duration="30" state="rrrgGrrrrgGrrrrrrr"/>
                <phase duration="10" state="GrrrrrrrrgGGrrrrrr"/>
                <phase duration="10" state="rrrgGGGrrrrrrrrrrr"/>
                <phase duration="10" state="GrrrrGGrrrrGrrrrrr"/>
                <phase duration="10" state="rrrrrrrrrrrrGGGGGG"/>
                <phase duration="8" state="rGrrrrrGrrrrrrGrrG"/>
                <phase duration="8" state="rGGGrrrrrrrrrrrrrG"/>
                <phase duration="8" state="rrrrrrrGGGrrrrGrrr"/>
                <phase duration="8" state="rrGGrrrrGGrrrrrrrr"/>
                <phase duration="8" state="rrrrGrrrrrGrGrrrGr"/>
                <phase duration="8" state="GrrrrrrrrrGGrrrrGr"/>
                <phase duration="8" state="rrrrGGGrrrrrGrrrrr"/>
                <phase duration="8" state="GrrrrGGrrrrGrrrrrr"/>
                <phase duration="8" state="rrrrrrrrrrrrrrrrrr"/>
   </tlLogic>
</additional>
