<additional>
   <tlLogic id="1" type="static" programID="my_program" offset="15">

                <phase duration="30" state="gGrrrrgGrrrrrrGrrG"/>
                <phase duration="10" state="gGGrrrrrrrrrrrrrrG"/>
                <phase duration="10" state="rrrrrrgGGrrrrrGrrr"/>
                <phase duration="10" state="rrGrrrrrGrrrrrrrrr"/>
                <phase duration="30" state="rrrgGrrrrgGrGrrrGr"/>
                <phase duration="10" state="rrrrrrrrrgGGrrrrGr"/>
                <phase duration="10" state="rrrgGGrrrrrrGrrrrr"/>
                <phase duration="10" state="rrrrrGrrrrrGrrrrrr"/>
                <phase duration="10" state="rrrrrrrrrrrrGGGGGG"/>
                <phase duration="8" state="yyrrrryyrrrrrrrrrr"/>
                <phase duration="8" state="yyyrrrrrrrrrrrrrrr"/>
                <phase duration="8" state="rrrrrryyyrrrrrrrrr"/>
                <phase duration="8" state="rryrrrrryrrrrrrrrr"/>
                <phase duration="8" state="rrryyrrrryyrrrrrrr"/>
                <phase duration="8" state="rrrrrrrrryyyrrrrrr"/>
                <phase duration="8" state="rrryyyrrrrrrrrrrrr"/>
                <phase duration="8" state="rrrrryrrrrryrrrrrr"/>
                <phase duration="20" state="rrrrrrrrrrrrrrrrrr"/>
                <phase duration="30" state="gGrrrrgGrrrrrrrrrr"/>
                <phase duration="10" state="gGGrrrrrrrrrrrrrrr"/>
                <phase duration="10" state="rrrrrrgGGrrrrrrrrr"/>
                <phase duration="10" state="rrGrrrrrGrrrrrrrrr"/>
                <phase duration="30" state="rrrgGrrrrgGrrrrrrr"/>
                <phase duration="10" state="rrrrrrrrrgGGrrrrrr"/>
                <phase duration="10" state="rrrgGGrrrrrrrrrrrr"/>
                <phase duration="10" state="rrrrrGrrrrrGrrrrrr"/>
                <phase duration="10" state="rrrrrrrrrrrrGGGGGG"/>
                <phase duration="8" state="rGrrrrrGrrrrrrGrrG"/>
                <phase duration="8" state="rGGrrrrrrrrrrrrrrG"/>
                <phase duration="8" state="rrrrrrrGGrrrrrGrrr"/>
                <phase duration="8" state="rrGrrrrrGrrrrrrrrr"/>
                <phase duration="8" state="rrrrGrrrrrGrGrrrGr"/>
                <phase duration="8" state="rrrrrrrrrrGGrrrrGr"/>
                <phase duration="8" state="rrrrGGrrrrrrGrrrrr"/>
                <phase duration="8" state="rrrrrGrrrrrGrrrrrr"/>
                <phase duration="8" state="rrrrrrrrrrrrrrrrrr"/>
   </tlLogic>
</additional>
