<routes>
            <vType id="cars" accel="3" decel="5" sigma="1" length="5" minGap="2" maxSpeed="13"             guiShape="passenger"/>

            <route id="WE" edges="2_1 1_4" />
            <route id="WN" edges="2_1 1_5" />
            <route id="WS" edges="2_1 1_3" />
            <route id="SN" edges="3_1 1_5" />
            <route id="SW" edges="3_1 1_2" />
            <route id="SE" edges="3_1 1_4" />
            <route id="EW" edges="4_1 1_2" />
            <route id="ES" edges="4_1 1_3" />
            <route id="EN" edges="4_1 1_5" />
            <route id="NS" edges="5_1 1_3" />
            <route id="NE" edges="5_1 1_4" />
            <route id="NW" edges="5_1 1_2" />

            <route id="NS_ped" edges="5_1 :1_w0 :1_c5 :1_w3 1_3" />
            <route id="SN_ped" edges="3_1 :1_w2 :1_c2 :1_w1 1_5" />
            <route id="WE_ped" edges="2_1 :1_w3 :1_c4 :1_w2 1_4" />
            <route id="EW_ped" edges="4_1 :1_w1 :1_c0 :1_w0 1_2" />
            <route id="WN_ped_wn" edges="2_1 :1_w3 :1_c5 :1_w0 :1_c0 :1_w1 1_5" />
            <route id="WN_ped_se" edges="2_1 :1_w3 :1_c4 :1_w2 :1_c2 :1_w1 1_5" />
            <route id="SW_ped_sw" edges="3_1 :1_w2 :1_c4 :1_w3 :1_c5 :1_w0 1_2" />
            <route id="SW_ped_en" edges="3_1 :1_w2 :1_c2 :1_w1 :1_c0 :1_w0 1_2" />
            <route id="ES_ped_es" edges="4_1 :1_w1 :1_c2 :1_w2 :1_c4 :1_w3 1_3" />
            <route id="ES_ped_nw" edges="4_1 :1_w1 :1_c0 :1_w0 :1_c5 :1_w3 1_3" />
            <route id="NE_ped_ne" edges="5_1 :1_w0 :1_c0 :1_w1 :1_c2 :1_w2 1_4" />
            <route id="NE_ped_ws" edges="5_1 :1_w0 :1_c5 :1_w3 :1_c4 :1_w2 1_4" />
            <route id="WN_ped_diag" edges="2_1 :1_w3 :1_c1 :1_w1 1_5" />
            <route id="SW_ped_diag" edges="3_1 :1_w2 :1_c3 :1_w0 1_2" />
            <route id="ES_ped_diag" edges="4_1 :1_w1 :1_c1 :1_w3 1_3" />
            <route id="NE_ped_diag" edges="5_1 :1_w0 :1_c3 :1_w2 1_4" />

            
            <personFlow id="person_WE_s" begin="0" end="900" period="exp(0.06)" departPos="100">
                <walk route="WE_ped"/>
             </personFlow>
            <personFlow id="person_EW_n" begin="0" end="900" period="exp(0.02)" departPos="100">
                <walk route="EW_ped"/>
            </personFlow>
            <personFlow id="person_NS_w" begin="0" end="900" period="exp(0.12)" departPos="100">
                <walk route="NS_ped"/>
            </personFlow>
            <personFlow id="person_SN_e" begin="0" end="900" period="exp(0.04)" departPos="100">
                <walk route="SN_ped"/>
            </personFlow>   
            <personFlow id="person_WN_diag" begin="0" end="900" period="exp(0.06)" departPos="100">
                <walk from="2_1" to="1_5"/>
            </personFlow>
            <personFlow id="person_SW_diag" begin="0" end="900" period="exp(0.06)" departPos="100">
                <walk from="3_1" to="1_2"/>
            </personFlow>   
            <personFlow id="person_ES_diag" begin="0" end="900" period="exp(0.06)" departPos="100">
                <walk from="4_1" to="1_3"/>
            </personFlow>       
            <personFlow id="person_NE_diag" begin="0" end="900" period="exp(0.06)" departPos="100">
                <walk from="5_1" to="1_4"/>
            </personFlow>      
   
            
    <vehicle id="SN_0" type="cars" route="SN" depart="0" departLane="2" color="0,1,0"/>
    <vehicle id="WE_0" type="cars" route="WE" depart="1" departLane="2" color="0,1,0"/>
    <vehicle id="NS_1" type="cars" route="NS" depart="1" departLane="2" color="0,1,0"/>
    <vehicle id="SN_2" type="cars" route="SN" depart="5" departLane="2" color="0,1,0"/>
    <vehicle id="WS_3" type="cars" route="WS" depart="7" departLane="1" color="0,1,0"/>
    <vehicle id="SE_4" type="cars" route="SE" depart="9" departLane="1" color="0,1,0"/>
    <vehicle id="NS_5" type="cars" route="NS" depart="11" departLane="2" color="0,1,0"/>
    <vehicle id="WE_1" type="cars" route="WE" depart="12" departLane="2" color="0,1,0"/>
    <vehicle id="WS_6" type="cars" route="WS" depart="14" departLane="1" color="0,1,0"/>
    <vehicle id="WN_7" type="cars" route="WN" depart="16" departLane="3" color="0,1,0"/>
    <vehicle id="NS_8" type="cars" route="NS" depart="17" departLane="2" color="0,1,0"/>
    <vehicle id="SN_9" type="cars" route="SN" depart="18" departLane="2" color="0,1,0"/>
    <vehicle id="EN_10" type="cars" route="EN" depart="20" departLane="1" color="0,1,0"/>
    <vehicle id="NS_11" type="cars" route="NS" depart="20" departLane="2" color="0,1,0"/>
    <vehicle id="WE_2" type="cars" route="WE" depart="22" departLane="2" color="0,1,0"/>
    <vehicle id="EW_0" type="cars" route="EW" depart="22" departLane="2" color="0,1,0"/>
    <vehicle id="SN_12" type="cars" route="SN" depart="25" departLane="2" color="0,1,0"/>
    <vehicle id="NS_13" type="cars" route="NS" depart="26" departLane="2" color="0,1,0"/>
    <vehicle id="WE_3" type="cars" route="WE" depart="27" departLane="2" color="0,1,0"/>
    <vehicle id="NS_14" type="cars" route="NS" depart="27" departLane="2" color="0,1,0"/>
    <vehicle id="SN_15" type="cars" route="SN" depart="29" departLane="2" color="0,1,0"/>
    <vehicle id="NS_16" type="cars" route="NS" depart="30" departLane="2" color="0,1,0"/>
    <vehicle id="SN_17" type="cars" route="SN" depart="33" departLane="2" color="0,1,0"/>
    <vehicle id="SN_18" type="cars" route="SN" depart="36" departLane="2" color="0,1,0"/>
    <vehicle id="SE_19" type="cars" route="SE" depart="39" departLane="1" color="0,1,0"/>
    <vehicle id="SN_20" type="cars" route="SN" depart="40" departLane="2" color="0,1,0"/>
    <vehicle id="EW_1" type="cars" route="EW" depart="42" departLane="2" color="0,1,0"/>
    <vehicle id="EW_2" type="cars" route="EW" depart="46" departLane="2" color="0,1,0"/>
    <vehicle id="WE_4" type="cars" route="WE" depart="50" departLane="2" color="0,1,0"/>
    <vehicle id="NW_21" type="cars" route="NW" depart="53" departLane="1" color="0,1,0"/>
    <vehicle id="EW_3" type="cars" route="EW" depart="59" departLane="2" color="0,1,0"/>
    <vehicle id="EW_4" type="cars" route="EW" depart="62" departLane="2" color="0,1,0"/>
    <vehicle id="NS_22" type="cars" route="NS" depart="66" departLane="2" color="0,1,0"/>
    <vehicle id="NW_23" type="cars" route="NW" depart="69" departLane="1" color="0,1,0"/>
    <vehicle id="ES_24" type="cars" route="ES" depart="73" departLane="3" color="0,1,0"/>
    <vehicle id="SN_25" type="cars" route="SN" depart="74" departLane="2" color="0,1,0"/>
    <vehicle id="WE_5" type="cars" route="WE" depart="75" departLane="2" color="0,1,0"/>
    <vehicle id="NS_26" type="cars" route="NS" depart="75" departLane="2" color="0,1,0"/>
    <vehicle id="EW_5" type="cars" route="EW" depart="76" departLane="2" color="0,1,0"/>
    <vehicle id="WE_6" type="cars" route="WE" depart="77" departLane="2" color="0,1,0"/>
    <vehicle id="SE_27" type="cars" route="SE" depart="78" departLane="1" color="0,1,0"/>
    <vehicle id="SN_28" type="cars" route="SN" depart="81" departLane="2" color="0,1,0"/>
    <vehicle id="NS_29" type="cars" route="NS" depart="83" departLane="2" color="0,1,0"/>
    <vehicle id="SN_30" type="cars" route="SN" depart="83" departLane="2" color="0,1,0"/>
    <vehicle id="SN_31" type="cars" route="SN" depart="84" departLane="2" color="0,1,0"/>
    <vehicle id="NS_32" type="cars" route="NS" depart="87" departLane="2" color="0,1,0"/>
    <vehicle id="WE_7" type="cars" route="WE" depart="89" departLane="2" color="0,1,0"/>
    <vehicle id="SN_33" type="cars" route="SN" depart="90" departLane="2" color="0,1,0"/>
    <vehicle id="WE_8" type="cars" route="WE" depart="92" departLane="2" color="0,1,0"/>
    <vehicle id="EW_6" type="cars" route="EW" depart="92" departLane="2" color="0,1,0"/>
    <vehicle id="SN_34" type="cars" route="SN" depart="97" departLane="2" color="0,1,0"/>
    <vehicle id="WN_35" type="cars" route="WN" depart="99" departLane="3" color="0,1,0"/>
    <vehicle id="NW_36" type="cars" route="NW" depart="101" departLane="1" color="0,1,0"/>
    <vehicle id="NS_37" type="cars" route="NS" depart="105" departLane="2" color="0,1,0"/>
    <vehicle id="WE_9" type="cars" route="WE" depart="106" departLane="2" color="0,1,0"/>
    <vehicle id="SN_38" type="cars" route="SN" depart="107" departLane="2" color="0,1,0"/>
    <vehicle id="EN_39" type="cars" route="EN" depart="109" departLane="1" color="0,1,0"/>
    <vehicle id="SN_40" type="cars" route="SN" depart="110" departLane="2" color="0,1,0"/>
    <vehicle id="EW_7" type="cars" route="EW" depart="111" departLane="2" color="0,1,0"/>
    <vehicle id="NS_41" type="cars" route="NS" depart="111" departLane="2" color="0,1,0"/>
    <vehicle id="WE_10" type="cars" route="WE" depart="116" departLane="2" color="0,1,0"/>
    <vehicle id="WE_11" type="cars" route="WE" depart="117" departLane="2" color="0,1,0"/>
    <vehicle id="WE_12" type="cars" route="WE" depart="118" departLane="2" color="0,1,0"/>
    <vehicle id="WE_13" type="cars" route="WE" depart="119" departLane="2" color="0,1,0"/>
    <vehicle id="WE_14" type="cars" route="WE" depart="122" departLane="2" color="0,1,0"/>
    <vehicle id="NS_42" type="cars" route="NS" depart="122" departLane="2" color="0,1,0"/>
    <vehicle id="SW_43" type="cars" route="SW" depart="122" departLane="3" color="0,1,0"/>
    <vehicle id="EW_8" type="cars" route="EW" depart="123" departLane="2" color="0,1,0"/>
    <vehicle id="WE_15" type="cars" route="WE" depart="125" departLane="2" color="0,1,0"/>
    <vehicle id="EW_9" type="cars" route="EW" depart="128" departLane="2" color="0,1,0"/>
    <vehicle id="ES_44" type="cars" route="ES" depart="128" departLane="3" color="0,1,0"/>
    <vehicle id="SN_45" type="cars" route="SN" depart="128" departLane="2" color="0,1,0"/>
    <vehicle id="NS_46" type="cars" route="NS" depart="131" departLane="2" color="0,1,0"/>
    <vehicle id="SN_47" type="cars" route="SN" depart="132" departLane="2" color="0,1,0"/>
    <vehicle id="WS_48" type="cars" route="WS" depart="134" departLane="1" color="0,1,0"/>
    <vehicle id="NS_49" type="cars" route="NS" depart="134" departLane="2" color="0,1,0"/>
    <vehicle id="SN_50" type="cars" route="SN" depart="134" departLane="2" color="0,1,0"/>
    <vehicle id="SE_51" type="cars" route="SE" depart="135" departLane="1" color="0,1,0"/>
    <vehicle id="SW_52" type="cars" route="SW" depart="140" departLane="3" color="0,1,0"/>
    <vehicle id="EW_10" type="cars" route="EW" depart="144" departLane="2" color="0,1,0"/>
    <vehicle id="EW_11" type="cars" route="EW" depart="145" departLane="2" color="0,1,0"/>
    <vehicle id="ES_53" type="cars" route="ES" depart="148" departLane="3" color="0,1,0"/>
    <vehicle id="NS_54" type="cars" route="NS" depart="148" departLane="2" color="0,1,0"/>
    <vehicle id="SN_55" type="cars" route="SN" depart="149" departLane="2" color="0,1,0"/>
    <vehicle id="NS_56" type="cars" route="NS" depart="153" departLane="2" color="0,1,0"/>
    <vehicle id="NS_57" type="cars" route="NS" depart="154" departLane="2" color="0,1,0"/>
    <vehicle id="ES_58" type="cars" route="ES" depart="155" departLane="3" color="0,1,0"/>
    <vehicle id="NS_59" type="cars" route="NS" depart="155" departLane="2" color="0,1,0"/>
    <vehicle id="EN_60" type="cars" route="EN" depart="157" departLane="1" color="0,1,0"/>
    <vehicle id="NS_61" type="cars" route="NS" depart="157" departLane="2" color="0,1,0"/>
    <vehicle id="NS_62" type="cars" route="NS" depart="160" departLane="2" color="0,1,0"/>
    <vehicle id="EW_12" type="cars" route="EW" depart="162" departLane="2" color="0,1,0"/>
    <vehicle id="NE_63" type="cars" route="NE" depart="162" departLane="3" color="0,1,0"/>
    <vehicle id="SN_64" type="cars" route="SN" depart="167" departLane="2" color="0,1,0"/>
    <vehicle id="NS_65" type="cars" route="NS" depart="170" departLane="2" color="0,1,0"/>
    <vehicle id="EW_13" type="cars" route="EW" depart="171" departLane="2" color="0,1,0"/>
    <vehicle id="NE_66" type="cars" route="NE" depart="171" departLane="3" color="0,1,0"/>
    <vehicle id="NS_67" type="cars" route="NS" depart="173" departLane="2" color="0,1,0"/>
    <vehicle id="WE_16" type="cars" route="WE" depart="174" departLane="2" color="0,1,0"/>
    <vehicle id="WN_68" type="cars" route="WN" depart="174" departLane="3" color="0,1,0"/>
    <vehicle id="SW_69" type="cars" route="SW" depart="175" departLane="3" color="0,1,0"/>
    <vehicle id="EW_14" type="cars" route="EW" depart="176" departLane="2" color="0,1,0"/>
    <vehicle id="WE_17" type="cars" route="WE" depart="178" departLane="2" color="0,1,0"/>
    <vehicle id="EW_15" type="cars" route="EW" depart="178" departLane="2" color="0,1,0"/>
    <vehicle id="WE_18" type="cars" route="WE" depart="182" departLane="2" color="0,1,0"/>
    <vehicle id="WE_19" type="cars" route="WE" depart="183" departLane="2" color="0,1,0"/>
    <vehicle id="EW_16" type="cars" route="EW" depart="183" departLane="2" color="0,1,0"/>
    <vehicle id="NS_70" type="cars" route="NS" depart="184" departLane="2" color="0,1,0"/>
    <vehicle id="EW_17" type="cars" route="EW" depart="185" departLane="2" color="0,1,0"/>
    <vehicle id="NE_71" type="cars" route="NE" depart="188" departLane="3" color="0,1,0"/>
    <vehicle id="SN_72" type="cars" route="SN" depart="192" departLane="2" color="0,1,0"/>
    <vehicle id="NS_73" type="cars" route="NS" depart="193" departLane="2" color="0,1,0"/>
    <vehicle id="EW_18" type="cars" route="EW" depart="194" departLane="2" color="0,1,0"/>
    <vehicle id="NS_74" type="cars" route="NS" depart="194" departLane="2" color="0,1,0"/>
    <vehicle id="SN_75" type="cars" route="SN" depart="194" departLane="2" color="0,1,0"/>
    <vehicle id="EN_76" type="cars" route="EN" depart="196" departLane="1" color="0,1,0"/>
    <vehicle id="SN_77" type="cars" route="SN" depart="197" departLane="2" color="0,1,0"/>
    <vehicle id="NS_78" type="cars" route="NS" depart="198" departLane="2" color="0,1,0"/>
    <vehicle id="SE_79" type="cars" route="SE" depart="198" departLane="1" color="0,1,0"/>
    <vehicle id="SE_80" type="cars" route="SE" depart="199" departLane="1" color="0,1,0"/>
    <vehicle id="EW_19" type="cars" route="EW" depart="200" departLane="2" color="0,1,0"/>
    <vehicle id="WE_20" type="cars" route="WE" depart="201" departLane="2" color="0,1,0"/>
    <vehicle id="EW_20" type="cars" route="EW" depart="201" departLane="2" color="0,1,0"/>
    <vehicle id="EN_81" type="cars" route="EN" depart="201" departLane="1" color="0,1,0"/>
    <vehicle id="NS_82" type="cars" route="NS" depart="201" departLane="2" color="0,1,0"/>
    <vehicle id="SE_83" type="cars" route="SE" depart="201" departLane="1" color="0,1,0"/>
    <vehicle id="WE_21" type="cars" route="WE" depart="203" departLane="2" color="0,1,0"/>
    <vehicle id="EW_21" type="cars" route="EW" depart="205" departLane="2" color="0,1,0"/>
    <vehicle id="EN_84" type="cars" route="EN" depart="205" departLane="1" color="0,1,0"/>
    <vehicle id="NS_85" type="cars" route="NS" depart="206" departLane="2" color="0,1,0"/>
    <vehicle id="WE_22" type="cars" route="WE" depart="208" departLane="2" color="0,1,0"/>
    <vehicle id="SN_86" type="cars" route="SN" depart="211" departLane="2" color="0,1,0"/>
    <vehicle id="WN_87" type="cars" route="WN" depart="212" departLane="3" color="0,1,0"/>
    <vehicle id="WS_88" type="cars" route="WS" depart="213" departLane="1" color="0,1,0"/>
    <vehicle id="NE_89" type="cars" route="NE" depart="216" departLane="3" color="0,1,0"/>
    <vehicle id="WN_90" type="cars" route="WN" depart="217" departLane="3" color="0,1,0"/>
    <vehicle id="WE_23" type="cars" route="WE" depart="218" departLane="2" color="0,1,0"/>
    <vehicle id="SN_91" type="cars" route="SN" depart="218" departLane="2" color="0,1,0"/>
    <vehicle id="NS_92" type="cars" route="NS" depart="219" departLane="2" color="0,1,0"/>
    <vehicle id="NS_93" type="cars" route="NS" depart="221" departLane="2" color="0,1,0"/>
    <vehicle id="SE_94" type="cars" route="SE" depart="222" departLane="1" color="0,1,0"/>
    <vehicle id="SN_95" type="cars" route="SN" depart="223" departLane="2" color="0,1,0"/>
    <vehicle id="NS_96" type="cars" route="NS" depart="225" departLane="2" color="0,1,0"/>
    <vehicle id="WN_97" type="cars" route="WN" depart="226" departLane="3" color="0,1,0"/>
    <vehicle id="SW_98" type="cars" route="SW" depart="229" departLane="3" color="0,1,0"/>
    <vehicle id="EW_22" type="cars" route="EW" depart="230" departLane="2" color="0,1,0"/>
    <vehicle id="EW_23" type="cars" route="EW" depart="231" departLane="2" color="0,1,0"/>
    <vehicle id="SN_99" type="cars" route="SN" depart="232" departLane="2" color="0,1,0"/>
    <vehicle id="EW_24" type="cars" route="EW" depart="233" departLane="2" color="0,1,0"/>
    <vehicle id="WE_24" type="cars" route="WE" depart="236" departLane="2" color="0,1,0"/>
    <vehicle id="WE_25" type="cars" route="WE" depart="237" departLane="2" color="0,1,0"/>
    <vehicle id="NW_100" type="cars" route="NW" depart="238" departLane="1" color="0,1,0"/>
    <vehicle id="EW_25" type="cars" route="EW" depart="242" departLane="2" color="0,1,0"/>
    <vehicle id="WE_26" type="cars" route="WE" depart="246" departLane="2" color="0,1,0"/>
    <vehicle id="WS_101" type="cars" route="WS" depart="246" departLane="1" color="0,1,0"/>
    <vehicle id="SN_102" type="cars" route="SN" depart="246" departLane="2" color="0,1,0"/>
    <vehicle id="SN_103" type="cars" route="SN" depart="248" departLane="2" color="0,1,0"/>
    <vehicle id="WE_27" type="cars" route="WE" depart="250" departLane="2" color="0,1,0"/>
    <vehicle id="SN_104" type="cars" route="SN" depart="250" departLane="2" color="0,1,0"/>
    <vehicle id="SW_105" type="cars" route="SW" depart="250" departLane="3" color="0,1,0"/>
    <vehicle id="SE_106" type="cars" route="SE" depart="250" departLane="1" color="0,1,0"/>
    <vehicle id="WE_28" type="cars" route="WE" depart="251" departLane="2" color="0,1,0"/>
    <vehicle id="SW_107" type="cars" route="SW" depart="251" departLane="3" color="0,1,0"/>
    <vehicle id="WE_29" type="cars" route="WE" depart="257" departLane="2" color="0,1,0"/>
    <vehicle id="EW_26" type="cars" route="EW" depart="257" departLane="2" color="0,1,0"/>
    <vehicle id="WE_30" type="cars" route="WE" depart="259" departLane="2" color="0,1,0"/>
    <vehicle id="NW_108" type="cars" route="NW" depart="260" departLane="1" color="0,1,0"/>
    <vehicle id="NS_109" type="cars" route="NS" depart="261" departLane="2" color="0,1,0"/>
    <vehicle id="EW_27" type="cars" route="EW" depart="262" departLane="2" color="0,1,0"/>
    <vehicle id="WE_31" type="cars" route="WE" depart="264" departLane="2" color="0,1,0"/>
    <vehicle id="WE_32" type="cars" route="WE" depart="266" departLane="2" color="0,1,0"/>
    <vehicle id="SE_110" type="cars" route="SE" depart="266" departLane="1" color="0,1,0"/>
    <vehicle id="NE_111" type="cars" route="NE" depart="267" departLane="3" color="0,1,0"/>
    <vehicle id="ES_112" type="cars" route="ES" depart="268" departLane="3" color="0,1,0"/>
    <vehicle id="SN_113" type="cars" route="SN" depart="268" departLane="2" color="0,1,0"/>
    <vehicle id="NS_114" type="cars" route="NS" depart="269" departLane="2" color="0,1,0"/>
    <vehicle id="SN_115" type="cars" route="SN" depart="269" departLane="2" color="0,1,0"/>
    <vehicle id="NS_116" type="cars" route="NS" depart="271" departLane="2" color="0,1,0"/>
    <vehicle id="WE_33" type="cars" route="WE" depart="273" departLane="2" color="0,1,0"/>
    <vehicle id="ES_117" type="cars" route="ES" depart="274" departLane="3" color="0,1,0"/>
    <vehicle id="WS_118" type="cars" route="WS" depart="275" departLane="1" color="0,1,0"/>
    <vehicle id="WS_119" type="cars" route="WS" depart="276" departLane="1" color="0,1,0"/>
    <vehicle id="EN_120" type="cars" route="EN" depart="278" departLane="1" color="0,1,0"/>
    <vehicle id="NE_121" type="cars" route="NE" depart="279" departLane="3" color="0,1,0"/>
    <vehicle id="EW_28" type="cars" route="EW" depart="280" departLane="2" color="0,1,0"/>
    <vehicle id="WE_34" type="cars" route="WE" depart="281" departLane="2" color="0,1,0"/>
    <vehicle id="NS_122" type="cars" route="NS" depart="283" departLane="2" color="0,1,0"/>
    <vehicle id="SN_123" type="cars" route="SN" depart="284" departLane="2" color="0,1,0"/>
    <vehicle id="NS_124" type="cars" route="NS" depart="285" departLane="2" color="0,1,0"/>
    <vehicle id="WE_35" type="cars" route="WE" depart="288" departLane="2" color="0,1,0"/>
    <vehicle id="SN_125" type="cars" route="SN" depart="288" departLane="2" color="0,1,0"/>
    <vehicle id="NS_126" type="cars" route="NS" depart="292" departLane="2" color="0,1,0"/>
    <vehicle id="EW_29" type="cars" route="EW" depart="293" departLane="2" color="0,1,0"/>
    <vehicle id="EW_30" type="cars" route="EW" depart="299" departLane="2" color="0,1,0"/>
    <vehicle id="SN_127" type="cars" route="SN" depart="300" departLane="2" color="0,1,0"/>
    <vehicle id="ES_128" type="cars" route="ES" depart="301" departLane="3" color="0,1,0"/>
    <vehicle id="SN_129" type="cars" route="SN" depart="301" departLane="2" color="0,1,0"/>
    <vehicle id="WE_36" type="cars" route="WE" depart="302" departLane="2" color="0,1,0"/>
    <vehicle id="EW_31" type="cars" route="EW" depart="302" departLane="2" color="0,1,0"/>
    <vehicle id="SN_130" type="cars" route="SN" depart="302" departLane="2" color="0,1,0"/>
    <vehicle id="WE_37" type="cars" route="WE" depart="303" departLane="2" color="0,1,0"/>
    <vehicle id="WE_38" type="cars" route="WE" depart="305" departLane="2" color="0,1,0"/>
    <vehicle id="SW_131" type="cars" route="SW" depart="305" departLane="3" color="0,1,0"/>
    <vehicle id="NS_132" type="cars" route="NS" depart="309" departLane="2" color="0,1,0"/>
    <vehicle id="SN_133" type="cars" route="SN" depart="309" departLane="2" color="0,1,0"/>
    <vehicle id="WE_39" type="cars" route="WE" depart="311" departLane="2" color="0,1,0"/>
    <vehicle id="NS_134" type="cars" route="NS" depart="311" departLane="2" color="0,1,0"/>
    <vehicle id="EW_32" type="cars" route="EW" depart="314" departLane="2" color="0,1,0"/>
    <vehicle id="NS_135" type="cars" route="NS" depart="314" departLane="2" color="0,1,0"/>
    <vehicle id="WE_40" type="cars" route="WE" depart="316" departLane="2" color="0,1,0"/>
    <vehicle id="NS_136" type="cars" route="NS" depart="317" departLane="2" color="0,1,0"/>
    <vehicle id="WN_137" type="cars" route="WN" depart="323" departLane="3" color="0,1,0"/>
    <vehicle id="EW_33" type="cars" route="EW" depart="325" departLane="2" color="0,1,0"/>
    <vehicle id="NS_138" type="cars" route="NS" depart="325" departLane="2" color="0,1,0"/>
    <vehicle id="WE_41" type="cars" route="WE" depart="327" departLane="2" color="0,1,0"/>
    <vehicle id="EW_34" type="cars" route="EW" depart="331" departLane="2" color="0,1,0"/>
    <vehicle id="WE_42" type="cars" route="WE" depart="335" departLane="2" color="0,1,0"/>
    <vehicle id="NS_139" type="cars" route="NS" depart="335" departLane="2" color="0,1,0"/>
    <vehicle id="EW_35" type="cars" route="EW" depart="337" departLane="2" color="0,1,0"/>
    <vehicle id="SN_140" type="cars" route="SN" depart="337" departLane="2" color="0,1,0"/>
    <vehicle id="EW_36" type="cars" route="EW" depart="344" departLane="2" color="0,1,0"/>
    <vehicle id="ES_141" type="cars" route="ES" depart="344" departLane="3" color="0,1,0"/>
    <vehicle id="NW_142" type="cars" route="NW" depart="344" departLane="1" color="0,1,0"/>
    <vehicle id="WE_43" type="cars" route="WE" depart="345" departLane="2" color="0,1,0"/>
    <vehicle id="SN_143" type="cars" route="SN" depart="346" departLane="2" color="0,1,0"/>
    <vehicle id="SN_144" type="cars" route="SN" depart="348" departLane="2" color="0,1,0"/>
    <vehicle id="NW_145" type="cars" route="NW" depart="349" departLane="1" color="0,1,0"/>
    <vehicle id="WN_146" type="cars" route="WN" depart="351" departLane="3" color="0,1,0"/>
    <vehicle id="NW_147" type="cars" route="NW" depart="352" departLane="1" color="0,1,0"/>
    <vehicle id="EN_148" type="cars" route="EN" depart="353" departLane="1" color="0,1,0"/>
    <vehicle id="NW_149" type="cars" route="NW" depart="353" departLane="1" color="0,1,0"/>
    <vehicle id="EN_150" type="cars" route="EN" depart="356" departLane="1" color="0,1,0"/>
    <vehicle id="SN_151" type="cars" route="SN" depart="356" departLane="2" color="0,1,0"/>
    <vehicle id="WE_44" type="cars" route="WE" depart="362" departLane="2" color="0,1,0"/>
    <vehicle id="WE_45" type="cars" route="WE" depart="363" departLane="2" color="0,1,0"/>
    <vehicle id="NS_152" type="cars" route="NS" depart="363" departLane="2" color="0,1,0"/>
    <vehicle id="SN_153" type="cars" route="SN" depart="367" departLane="2" color="0,1,0"/>
    <vehicle id="EW_37" type="cars" route="EW" depart="369" departLane="2" color="0,1,0"/>
    <vehicle id="SE_154" type="cars" route="SE" depart="370" departLane="1" color="0,1,0"/>
    <vehicle id="SN_155" type="cars" route="SN" depart="371" departLane="2" color="0,1,0"/>
    <vehicle id="NS_156" type="cars" route="NS" depart="372" departLane="2" color="0,1,0"/>
    <vehicle id="NS_157" type="cars" route="NS" depart="374" departLane="2" color="0,1,0"/>
    <vehicle id="SN_158" type="cars" route="SN" depart="375" departLane="2" color="0,1,0"/>
    <vehicle id="NS_159" type="cars" route="NS" depart="376" departLane="2" color="0,1,0"/>
    <vehicle id="NS_160" type="cars" route="NS" depart="378" departLane="2" color="0,1,0"/>
    <vehicle id="NW_161" type="cars" route="NW" depart="379" departLane="1" color="0,1,0"/>
    <vehicle id="NS_162" type="cars" route="NS" depart="381" departLane="2" color="0,1,0"/>
    <vehicle id="EW_38" type="cars" route="EW" depart="382" departLane="2" color="0,1,0"/>
    <vehicle id="NW_163" type="cars" route="NW" depart="382" departLane="1" color="0,1,0"/>
    <vehicle id="SE_164" type="cars" route="SE" depart="382" departLane="1" color="0,1,0"/>
    <vehicle id="NS_165" type="cars" route="NS" depart="392" departLane="2" color="0,1,0"/>
    <vehicle id="WE_46" type="cars" route="WE" depart="394" departLane="2" color="0,1,0"/>
    <vehicle id="WE_47" type="cars" route="WE" depart="396" departLane="2" color="0,1,0"/>
    <vehicle id="NW_166" type="cars" route="NW" depart="396" departLane="1" color="0,1,0"/>
    <vehicle id="WE_48" type="cars" route="WE" depart="398" departLane="2" color="0,1,0"/>
    <vehicle id="NS_167" type="cars" route="NS" depart="400" departLane="2" color="0,1,0"/>
    <vehicle id="NS_168" type="cars" route="NS" depart="401" departLane="2" color="0,1,0"/>
    <vehicle id="SN_169" type="cars" route="SN" depart="404" departLane="2" color="0,1,0"/>
    <vehicle id="EW_39" type="cars" route="EW" depart="407" departLane="2" color="0,1,0"/>
    <vehicle id="WE_49" type="cars" route="WE" depart="409" departLane="2" color="0,1,0"/>
    <vehicle id="NS_170" type="cars" route="NS" depart="411" departLane="2" color="0,1,0"/>
    <vehicle id="SE_171" type="cars" route="SE" depart="411" departLane="1" color="0,1,0"/>
    <vehicle id="EW_40" type="cars" route="EW" depart="415" departLane="2" color="0,1,0"/>
    <vehicle id="NS_172" type="cars" route="NS" depart="415" departLane="2" color="0,1,0"/>
    <vehicle id="EW_41" type="cars" route="EW" depart="418" departLane="2" color="0,1,0"/>
    <vehicle id="NS_173" type="cars" route="NS" depart="420" departLane="2" color="0,1,0"/>
    <vehicle id="SW_174" type="cars" route="SW" depart="421" departLane="3" color="0,1,0"/>
    <vehicle id="EW_42" type="cars" route="EW" depart="422" departLane="2" color="0,1,0"/>
    <vehicle id="NE_175" type="cars" route="NE" depart="422" departLane="3" color="0,1,0"/>
    <vehicle id="SN_176" type="cars" route="SN" depart="422" departLane="2" color="0,1,0"/>
    <vehicle id="EW_43" type="cars" route="EW" depart="424" departLane="2" color="0,1,0"/>
    <vehicle id="SN_177" type="cars" route="SN" depart="426" departLane="2" color="0,1,0"/>
    <vehicle id="NW_178" type="cars" route="NW" depart="428" departLane="1" color="0,1,0"/>
    <vehicle id="SN_179" type="cars" route="SN" depart="428" departLane="2" color="0,1,0"/>
    <vehicle id="WE_50" type="cars" route="WE" depart="431" departLane="2" color="0,1,0"/>
    <vehicle id="EW_44" type="cars" route="EW" depart="432" departLane="2" color="0,1,0"/>
    <vehicle id="WE_51" type="cars" route="WE" depart="433" departLane="2" color="0,1,0"/>
    <vehicle id="EN_180" type="cars" route="EN" depart="434" departLane="1" color="0,1,0"/>
    <vehicle id="SN_181" type="cars" route="SN" depart="434" departLane="2" color="0,1,0"/>
    <vehicle id="SW_182" type="cars" route="SW" depart="439" departLane="3" color="0,1,0"/>
    <vehicle id="NW_183" type="cars" route="NW" depart="445" departLane="1" color="0,1,0"/>
    <vehicle id="NS_184" type="cars" route="NS" depart="447" departLane="2" color="0,1,0"/>
    <vehicle id="NE_185" type="cars" route="NE" depart="447" departLane="3" color="0,1,0"/>
    <vehicle id="NW_186" type="cars" route="NW" depart="447" departLane="1" color="0,1,0"/>
    <vehicle id="EW_45" type="cars" route="EW" depart="449" departLane="2" color="0,1,0"/>
    <vehicle id="WE_52" type="cars" route="WE" depart="450" departLane="2" color="0,1,0"/>
    <vehicle id="SW_187" type="cars" route="SW" depart="453" departLane="3" color="0,1,0"/>
    <vehicle id="NS_188" type="cars" route="NS" depart="457" departLane="2" color="0,1,0"/>
    <vehicle id="NS_189" type="cars" route="NS" depart="459" departLane="2" color="0,1,0"/>
    <vehicle id="NW_190" type="cars" route="NW" depart="459" departLane="1" color="0,1,0"/>
    <vehicle id="EW_46" type="cars" route="EW" depart="460" departLane="2" color="0,1,0"/>
    <vehicle id="WE_53" type="cars" route="WE" depart="461" departLane="2" color="0,1,0"/>
    <vehicle id="WS_191" type="cars" route="WS" depart="461" departLane="1" color="0,1,0"/>