<additional>
   <tlLogic id="1" type="static" programID="my_program" offset="15">

                <phase duration="30" state="gGGrrrrrgGGrrrrrrGrGrr"/>
                <phase duration="10" state="gGGGgrrrrrrrrrrrrrrGrr"/>
                <phase duration="10" state="rrrrrrrrgGGGgrrrrGrrrr"/>
                <phase duration="10" state="rrrGrrrrrrrGrrrrrrrrrr"/>
                <phase duration="30" state="rrrrgGGrrrrrgGGrGrGrrr"/>
                <phase duration="10" state="rrrrrrrrrrrrgGGGrrGrrr"/>
                <phase duration="10" state="rrrrgGGGrrrrrrrrGrrrrr"/>
                <phase duration="10" state="rrrrrrrGrrrrrrrGrrrrrr"/>
                <phase duration="10" state="rrrrrrrrrrrrrrrrGGGGGG"/>
                <phase duration="8" state="yyyrrrrryyyrrrrrrrrrrr"/>
                <phase duration="8" state="yyyyrrrrrrrrrrrrrrrrrr"/>
                <phase duration="8" state="rrrrrrrryyyyrrrrrrrrrr"/>
                <phase duration="8" state="rrryrrrrrrryrrrrrrrrrr"/>
                <phase duration="8" state="rrrryyyrrrrryyyrrrrrrr"/>
                <phase duration="8" state="rrrrrrrrrrrryyyyrrrrrr"/>
                <phase duration="8" state="rrrryyyyrrrrrrrrrrrrrr"/>
                <phase duration="8" state="rrrrrrryrrrrrrryrrrrrr"/>
                <phase duration="20" state="rrrrrrrrrrrrrrrrrrrrrr"/>
                <phase duration="30" state="gGGrrrrrgGGrrrrrrrrrrr"/>
                <phase duration="10" state="gGGGrrrrrrrrrrrrrrrrrr"/>
                <phase duration="10" state="rrrrrrrrgGGGrrrrrrrrrr"/>
                <phase duration="10" state="rrrGrrrrrrrGrrrrrrrrrr"/>
                <phase duration="30" state="rrrrgGGrrrrrgGGrrrrrrr"/>
                <phase duration="10" state="rrrrrrrrrrrrgGGGrrrrrr"/>
                <phase duration="10" state="rrrrgGGGrrrrrrrrrrrrrr"/>
                <phase duration="10" state="rrrrrrrGrrrrrrrGrrrrrr"/>
                <phase duration="10" state="rrrrrrrrrrrrrrrrGGGGGG"/>
                <phase duration="8" state="rrrrrrrrrrrrrrrrrGrGrr"/>
                <phase duration="8" state="rrrrrrrrrrrrrrrrrrrGrr"/>
                <phase duration="8" state="rrrrrrrrrrrrrrrrrGrrrr"/>
                <phase duration="8" state="rrrGrrrrrrrGrrrrrrrrrr"/>
                <phase duration="8" state="rrrrrrrrrrrrrrrrGrGrrr"/>
                <phase duration="8" state="rrrrrrrrrrrrrrrrrrGrrr"/>
                <phase duration="8" state="rrrrrrrrrrrrrrrrGrrrrr"/>
                <phase duration="8" state="rrrrrrrGrrrrrrrGrrrrrr"/>
                <phase duration="8" state="rrrrrrrrrrrrrrrrGGGGGG"/>
   </tlLogic>
</additional>
