<additional>
   <tlLogic id="1" type="static" programID="my_program" offset="15">

            <phase duration="30" state="gGrgGGrgrrrrrrgGrgGGrgrrrrrrrrrrrr"/>
            <phase duration="10" state="gGrgGGGgrrrrrrgrrrrrrgrrrrrrrrrrrr"/>
            <phase duration="10" state="grrrrrrgrrrrrrgGrgGGGgrrrrrrrrrrrr"/>
            <phase duration="10" state="grGrrrGgrrgrrrgrGrrrGgrrgrrrrrrrrr"/>
            <phase duration="30" state="grrrrrrgGrgGGrgrrrrrrgGrgGGrrrrrrr"/>
            <phase duration="10" state="grrrrrrgrrrrrrgrrrrrrgGrgGGGrrrrrr"/>
            <phase duration="10" state="grrrrrrgGrgGGGgrrrrrrgrrrrrrrrrrrr"/>
            <phase duration="10" state="grrgrrrgrGrrrGgrrgrrrgrGrrrGrrrrrr"/>
            <phase duration="10" state="grrrrrrgrrrrrrgrrrrrrgrrrrrrGGGGGG"/>
            <phase duration="5" state="grryyyrgrrrrrrgrryyyrgrrrrrrrrrrrr"/>
            <phase duration="5" state="grryyyygrrrrrrgrrrrrrgrrrrrrrrrrrr"/>
            <phase duration="5" state="grrrrrrgrrrrrrgrryyyygrrrrrrrrrrrr"/>
            <phase duration="5" state="grrrrrygrryrrrgrrrrrygrryrrrrrrrrr"/>
            <phase duration="5" state="grrrrrrgyryyyrgrrrrrrgyryyyrrrrrrr"/>
            <phase duration="5" state="grrrrrrgrrrrrrgrrrrrrgyryyyyrrrrrr"/>
            <phase duration="5" state="grrrrrrgrryyyygrrrrrrgrrrrrrrrrrrr"/>
            <phase duration="5" state="grryrrrgrrrrrygrryrrrgrrrrryrrrrrr"/>
            <phase duration="20" state="rrrrrrrrrrrrrrrrrrrrrrrrrrrrrrrrrr"/>
                
   </tlLogic>
</additional>
