<additional>
   <tlLogic id="1" type="static" programID="my_program" offset="15">

            <phase duration="30" state="gGGgGGrgrrrrrrgGGgGGrgrrrrrrrrGrrG"/>
            <phase duration="10" state="gGGgGGGgrrrrrrgrrrrrrgrrrrrrrrrrrG"/>
            <phase duration="10" state="grrrrrrgrrrrrrgGGgGGGgrrrrrrrrGrrr"/>
            <phase duration="10" state="grrrrrGgrrrrrrgrrrrrGgrrrrrrrrrrrr"/>
            <phase duration="30" state="grrrrrrgGGgGGrgrrrrrrgGGgGGrGrrrGr"/>
            <phase duration="10" state="grrrrrrgrrrrrrgrrrrrrgGGgGGGrrrrGr"/>
            <phase duration="10" state="grrrrrrgGGgGGGgrrrrrrgrrrrrrGrrrrr"/>
            <phase duration="10" state="grrrrrrgrrrrrGgrrrrrrgrrrrrGrrrrrr"/>
            <phase duration="10" state="gGGrrrrgGGrrrrgGGrrrrgGGrrrrGGGGGG"/>
            <phase duration="8" state="grryyyrgrrrrrrgrryyyrgrrrrrrrrrrrr"/>
            <phase duration="8" state="grryyyygrrrrrrgrrrrrrgrrrrrrrrrrrr"/>
            <phase duration="8" state="grrrrrrgrrrrrrgrryyyygrrrrrrrrrrrr"/>
            <phase duration="8" state="grrrrrygrrrrrrgrrrrrygrrrrrrrrrrrr"/>
            <phase duration="8" state="grrrrrrgrryyyrgrrrrrrgrryyyrrrrrrr"/>
            <phase duration="8" state="grrrrrrgrrrrrrgrrrrrrgrryyyyrrrrrr"/>
            <phase duration="8" state="grrrrrrgrryyyygrrrrrrgrrrrrrrrrrrr"/>
            <phase duration="8" state="grrrrrrgrrrrrygrrrrrrgrrrrryrrrrrr"/>
            <phase duration="20" state="rrrrrrrrrrrrrrrrrrrrrrrrrrrrrrrrrr"/>
            <phase duration="30" state="gGGgGGrgrrrrrrgGGgGGrgrrrrrrrrrrrr"/>
            <phase duration="10" state="gGGgGGGgrrrrrrgrrrrrrgrrrrrrrrrrrr"/>
            <phase duration="10" state="grrrrrrgrrrrrrgGGgGGGgrrrrrrrrrrrr"/>
            <phase duration="10" state="grrrrrGgrrrrrrgrrrrrGgrrrrrrrrrrrr"/>
            <phase duration="30" state="grrrrrrgGGgGGrgrrrrrrgGGgGGrrrrrrr"/>
            <phase duration="10" state="grrrrrrgrrrrrrgrrrrrrgGGgGGGrrrrrr"/>
            <phase duration="10" state="grrrrrrgGGgGGGgrrrrrrgrrrrrrrrrrrr"/>
            <phase duration="10" state="grrrrrrgrrrrrGgrrrrrrgrrrrrGrrrrrr"/>
            <phase duration="10" state="gGGrrrrgGGrrrrgGGrrrrgGGrrrrGGGGGG"/>
                
   </tlLogic>
</additional>
