<routes>
            <vType id="cars" accel="3" decel="5" sigma="1" length="5" minGap="2" maxSpeed="13" guiShape="passenger">
                    <param key="has.ssm.device" value="true"/>
                    <param key="device.ssm.measures" value="TTC DRAC PET BR SGAP TGAP PPET MDRAC"/>
                    <param key="device.ssm.thresholds" value="1 3.0 2.0 0.0 0.2 0.5 2.0 3.4"/>
            </vType>
            <vType id="bike" vClass="bicycle" latAlignment="right" minGapLat="0.1">
                    <param key="has.ssm.device" value="true"/>
                    <param key="device.ssm.measures" value="TTC DRAC PET BR SGAP TGAP PPET MDRAC"/>
                    <param key="device.ssm.thresholds" value="1.5 3.0 2.0 0.0 0.2 0.5 2.0 3.4"/>
            </vType>

            <route id="WE" edges="2_1 1_4" />
            <route id="WN" edges="2_1 1_5" />
            <route id="WS" edges="2_1 1_3" />
            <route id="SN" edges="3_1 1_5" />
            <route id="SW" edges="3_1 1_2" />
            <route id="SE" edges="3_1 1_4" />
            <route id="EW" edges="4_1 1_2" />
            <route id="ES" edges="4_1 1_3" />
            <route id="EN" edges="4_1 1_5" />
            <route id="NS" edges="5_1 1_3" />
            <route id="NE" edges="5_1 1_4" />
            <route id="NW" edges="5_1 1_2" />

            <route id="NS_ped" edges="5_1 :1_w0 :1_c5 :1_w3 1_3" />
            <route id="SN_ped" edges="3_1 :1_w2 :1_c2 :1_w1 1_5" />
            <route id="WE_ped" edges="2_1 :1_w3 :1_c4 :1_w2 1_4" />
            <route id="EW_ped" edges="4_1 :1_w1 :1_c0 :1_w0 1_2" />
            <route id="WN_ped_wn" edges="2_1 :1_w3 :1_c5 :1_w0 :1_c0 :1_w1 1_5" />
            <route id="WN_ped_se" edges="2_1 :1_w3 :1_c4 :1_w2 :1_c2 :1_w1 1_5" />
            <route id="SW_ped_sw" edges="3_1 :1_w2 :1_c4 :1_w3 :1_c5 :1_w0 1_2" />
            <route id="SW_ped_en" edges="3_1 :1_w2 :1_c2 :1_w1 :1_c0 :1_w0 1_2" />
            <route id="ES_ped_es" edges="4_1 :1_w1 :1_c2 :1_w2 :1_c4 :1_w3 1_3" />
            <route id="ES_ped_nw" edges="4_1 :1_w1 :1_c0 :1_w0 :1_c5 :1_w3 1_3" />
            <route id="NE_ped_ne" edges="5_1 :1_w0 :1_c0 :1_w1 :1_c2 :1_w2 1_4" />
            <route id="NE_ped_ws" edges="5_1 :1_w0 :1_c5 :1_w3 :1_c4 :1_w2 1_4" />
            <route id="WN_ped_diag" edges="2_1 :1_w3 :1_c1 :1_w1 1_5" />
            <route id="SW_ped_diag" edges="3_1 :1_w2 :1_c3 :1_w0 1_2" />
            <route id="ES_ped_diag" edges="4_1 :1_w1 :1_c1 :1_w3 1_3" />
            <route id="NE_ped_diag" edges="5_1 :1_w0 :1_c3 :1_w2 1_4" />

            
            <personFlow id="person_WE_s" begin="0" end="900" period="exp(0.06)" departPos="100">
                <walk route="WE_ped"/>
             </personFlow>
            <personFlow id="person_EW_n" begin="0" end="900" period="exp(0.02)" departPos="100">
                <walk route="EW_ped"/>
            </personFlow>
            <personFlow id="person_NS_w" begin="0" end="900" period="exp(0.12)" departPos="100">
                <walk route="NS_ped"/>
            </personFlow>
            <personFlow id="person_SN_e" begin="0" end="900" period="exp(0.04)" departPos="100">
                <walk route="SN_ped"/>
            </personFlow>   
            <personFlow id="person_WN_diag" begin="0" end="900" period="exp(0.06)" departPos="100">
                <walk from="2_1" to="1_5"/>
            </personFlow>
            <personFlow id="person_SW_diag" begin="0" end="900" period="exp(0.06)" departPos="100">
                <walk from="3_1" to="1_2"/>
            </personFlow>   
            <personFlow id="person_ES_diag" begin="0" end="900" period="exp(0.06)" departPos="100">
                <walk from="4_1" to="1_3"/>
            </personFlow>       
            <personFlow id="person_NE_diag" begin="0" end="900" period="exp(0.06)" departPos="100">
                <walk from="5_1" to="1_4"/>
            </personFlow>      
               
            
            <flow id="WE-bike"  begin="0" end= "900" period="exp(0.08)" type="bike" route="WE" departLane="allowed">
            </flow>
            <flow id="WS-bike"  begin="0" end= "900" period="exp(0.02)" type="bike" route="WS" departLane="1">
            </flow>
            <flow id="NS-bike"  begin="0" end= "900" period="exp(0.02666666666666667)" type="bike" route="NS" departLane="allowed">
            </flow>
            <flow id="NW-bike"  begin="0" end= "900" period="exp(0.006666666666666667)" type="bike" route="NW" departLane="1">
            </flow>
            <flow id="EW-bike"  begin="0" end= "900" period="exp(0.04)" type="bike" route="EW" departLane="allowed">
            </flow>
            <flow id="EN-bike"  begin="0" end= "900" period="exp(0.01)" type="bike" route="EN" departLane="1">
            </flow>
            <flow id="SN-bike"  begin="0" end= "900" period="exp(0.013333333333333334)" type="bike" route="SN" departLane="allowed">
            </flow>
            <flow id="SE-bike"  begin="0" end= "900" period="exp(0.0033333333333333335)" type="bike" route="SE" departLane="1">
            </flow>          
            <flow id="WN-bike"  begin="0" end= "900" period="exp(0.01)" type="bike" route="WN" departLane="allowed">
            </flow> 
            <flow id="NE-bike"  begin="0" end= "900" period="exp(0.006666666666666667)" type="bike" route="NE" departLane="allowed">
            </flow>
            <flow id="ES-bike"  begin="0" end= "900" period="exp(0.01)" type="bike" route="ES" departLane="allowed">
            </flow> 
            <flow id="SW-bike"  begin="0" end= "900" period="exp(0.0033333333333333335)" type="bike" route="SW" departLane="allowed">
            </flow>
   
            
    <vehicle id="SN_0" type="cars" route="SN" depart="0" departLane="4" />
    <vehicle id="WE_0" type="cars" route="WE" depart="1" departLane="4"/>
    <vehicle id="NS_1" type="cars" route="NS" depart="1" departLane="4" />
    <vehicle id="SN_2" type="cars" route="SN" depart="5" departLane="4" />
    <vehicle id="WS_3" type="cars" route="WS" depart="7" departLane="3" />
    <vehicle id="WE_1" type="cars" route="WE" depart="10" departLane="4"/>
    <vehicle id="WE_2" type="cars" route="WE" depart="12" departLane="4" color="0,1,0"/>
    <vehicle id="ES_4" type="cars" route="ES" depart="14" departLane="5" />
    <vehicle id="WS_5" type="cars" route="WS" depart="16" departLane="3" color="0,1,0"/>
    <vehicle id="WE_3" type="cars" route="WE" depart="19" departLane="4" color="0,1,0"/>
    <vehicle id="NE_6" type="cars" route="NE" depart="20" departLane="5" />
    <vehicle id="NS_7" type="cars" route="NS" depart="22" departLane="4" />
    <vehicle id="SN_8" type="cars" route="SN" depart="25" departLane="4" color="0,1,0"/>
    <vehicle id="WE_4" type="cars" route="WE" depart="26" departLane="4" color="0,1,0"/>
    <vehicle id="SN_9" type="cars" route="SN" depart="26" departLane="4" />
    <vehicle id="WE_5" type="cars" route="WE" depart="29" departLane="4"/>
    <vehicle id="SN_10" type="cars" route="SN" depart="29" departLane="4" />
    <vehicle id="WE_6" type="cars" route="WE" depart="30" departLane="4"/>
    <vehicle id="SN_11" type="cars" route="SN" depart="30" departLane="4" />
    <vehicle id="EW_0" type="cars" route="EW" depart="32" departLane="4" color="0,1,0"/>
    <vehicle id="NS_12" type="cars" route="NS" depart="34" departLane="4" />
    <vehicle id="SE_13" type="cars" route="SE" depart="36" departLane="3" color="0,1,0"/>
    <vehicle id="EW_1" type="cars" route="EW" depart="37" departLane="4" />
    <vehicle id="SN_14" type="cars" route="SN" depart="38" departLane="4" />
    <vehicle id="SE_15" type="cars" route="SE" depart="39" departLane="3" />
    <vehicle id="SN_16" type="cars" route="SN" depart="40" departLane="4" />
    <vehicle id="EW_2" type="cars" route="EW" depart="42" departLane="4" />
    <vehicle id="NS_17" type="cars" route="NS" depart="50" departLane="4" />
    <vehicle id="SN_18" type="cars" route="SN" depart="50" departLane="4" />
    <vehicle id="NW_19" type="cars" route="NW" depart="53" departLane="3" color="0,1,0"/>
    <vehicle id="SN_20" type="cars" route="SN" depart="60" departLane="4" />
    <vehicle id="EW_3" type="cars" route="EW" depart="62" departLane="4" />
    <vehicle id="WE_7" type="cars" route="WE" depart="67" departLane="4"/>
    <vehicle id="NW_21" type="cars" route="NW" depart="69" departLane="3" color="0,1,0"/>
    <vehicle id="SN_22" type="cars" route="SN" depart="75" departLane="4" />
    <vehicle id="WE_8" type="cars" route="WE" depart="78" departLane="4"/>
    <vehicle id="WS_23" type="cars" route="WS" depart="79" departLane="3" />
    <vehicle id="SE_24" type="cars" route="SE" depart="83" departLane="3" color="0,1,0"/>
    <vehicle id="SN_25" type="cars" route="SN" depart="84" departLane="4" />
    <vehicle id="SN_26" type="cars" route="SN" depart="85" departLane="4" color="0,1,0"/>
    <vehicle id="NS_27" type="cars" route="NS" depart="89" departLane="4" />
    <vehicle id="WS_28" type="cars" route="WS" depart="91" departLane="3" />
    <vehicle id="NS_29" type="cars" route="NS" depart="92" departLane="4" />
    <vehicle id="NE_30" type="cars" route="NE" depart="92" departLane="5" color="0,1,0"/>
    <vehicle id="SN_31" type="cars" route="SN" depart="99" departLane="4" />
    <vehicle id="WS_32" type="cars" route="WS" depart="102" departLane="3" />
    <vehicle id="WE_9" type="cars" route="WE" depart="109" departLane="4"/>
    <vehicle id="WN_33" type="cars" route="WN" depart="110" departLane="5" color="0,1,0"/>
    <vehicle id="WE_10" type="cars" route="WE" depart="117" departLane="4"/>
    <vehicle id="WE_11" type="cars" route="WE" depart="118" departLane="4" color="0,1,0"/>
    <vehicle id="WE_12" type="cars" route="WE" depart="119" departLane="4" color="0,1,0"/>
    <vehicle id="WE_13" type="cars" route="WE" depart="120" departLane="4"/>
    <vehicle id="WE_14" type="cars" route="WE" depart="123" departLane="4"/>
    <vehicle id="NS_34" type="cars" route="NS" depart="123" departLane="4" />
    <vehicle id="SW_35" type="cars" route="SW" depart="123" departLane="5" />
    <vehicle id="EW_4" type="cars" route="EW" depart="124" departLane="4" />
    <vehicle id="WE_15" type="cars" route="WE" depart="126" departLane="4"/>
    <vehicle id="EW_5" type="cars" route="EW" depart="129" departLane="4" />
    <vehicle id="NW_36" type="cars" route="NW" depart="132" departLane="3" />
    <vehicle id="WE_16" type="cars" route="WE" depart="133" departLane="4"/>
    <vehicle id="WE_17" type="cars" route="WE" depart="134" departLane="4"/>
    <vehicle id="SN_37" type="cars" route="SN" depart="134" departLane="4" />
    <vehicle id="WS_38" type="cars" route="WS" depart="135" departLane="3" color="0,1,0"/>
    <vehicle id="NE_39" type="cars" route="NE" depart="135" departLane="5" />
    <vehicle id="SN_40" type="cars" route="SN" depart="135" departLane="4" color="0,1,0"/>
    <vehicle id="WE_18" type="cars" route="WE" depart="138" departLane="4"/>
    <vehicle id="SN_41" type="cars" route="SN" depart="143" departLane="4" color="0,1,0"/>
    <vehicle id="EW_6" type="cars" route="EW" depart="145" departLane="4" />
    <vehicle id="EW_7" type="cars" route="EW" depart="146" departLane="4" color="0,1,0"/>
    <vehicle id="WE_19" type="cars" route="WE" depart="150" departLane="4"/>
    <vehicle id="SN_42" type="cars" route="SN" depart="150" departLane="4" color="0,1,0"/>
    <vehicle id="WE_20" type="cars" route="WE" depart="151" departLane="4" color="0,1,0"/>
    <vehicle id="NS_43" type="cars" route="NS" depart="154" departLane="4" />
    <vehicle id="EN_44" type="cars" route="EN" depart="156" departLane="3" color="0,1,0"/>
    <vehicle id="NE_45" type="cars" route="NE" depart="158" departLane="5" />
    <vehicle id="EW_8" type="cars" route="EW" depart="160" departLane="4" color="0,1,0"/>
    <vehicle id="NS_46" type="cars" route="NS" depart="163" departLane="4" color="0,1,0"/>
    <vehicle id="WN_47" type="cars" route="WN" depart="173" departLane="5" />
    <vehicle id="SN_48" type="cars" route="SN" depart="173" departLane="4" />
    <vehicle id="WE_21" type="cars" route="WE" depart="175" departLane="4" color="0,1,0"/>
    <vehicle id="EW_9" type="cars" route="EW" depart="175" departLane="4" />
    <vehicle id="NW_49" type="cars" route="NW" depart="175" departLane="3" />
    <vehicle id="SN_50" type="cars" route="SN" depart="177" departLane="4" />
    <vehicle id="SN_51" type="cars" route="SN" depart="179" departLane="4" />
    <vehicle id="SN_52" type="cars" route="SN" depart="184" departLane="4" />
    <vehicle id="WE_22" type="cars" route="WE" depart="187" departLane="4"/>
    <vehicle id="NS_53" type="cars" route="NS" depart="188" departLane="4" />
    <vehicle id="EN_54" type="cars" route="EN" depart="190" departLane="3" />
    <vehicle id="EW_10" type="cars" route="EW" depart="191" departLane="4" />
    <vehicle id="NS_55" type="cars" route="NS" depart="194" departLane="4" />
    <vehicle id="SN_56" type="cars" route="SN" depart="196" departLane="4" color="0,1,0"/>
    <vehicle id="EN_57" type="cars" route="EN" depart="198" departLane="3" />
    <vehicle id="SN_58" type="cars" route="SN" depart="199" departLane="4" color="0,1,0"/>
    <vehicle id="WE_23" type="cars" route="WE" depart="201" departLane="4"/>
    <vehicle id="WE_24" type="cars" route="WE" depart="202" departLane="4"/>
    <vehicle id="SN_59" type="cars" route="SN" depart="203" departLane="4" color="0,1,0"/>
    <vehicle id="ES_60" type="cars" route="ES" depart="204" departLane="5" />
    <vehicle id="EW_11" type="cars" route="EW" depart="207" departLane="4" />
    <vehicle id="WE_25" type="cars" route="WE" depart="213" departLane="4"/>
    <vehicle id="NS_61" type="cars" route="NS" depart="214" departLane="4" />
    <vehicle id="WE_26" type="cars" route="WE" depart="216" departLane="4"/>
    <vehicle id="WE_27" type="cars" route="WE" depart="220" departLane="4"/>
    <vehicle id="SN_62" type="cars" route="SN" depart="220" departLane="4" color="0,1,0"/>
    <vehicle id="NS_63" type="cars" route="NS" depart="224" departLane="4" color="0,1,0"/>
    <vehicle id="SE_64" type="cars" route="SE" depart="225" departLane="3" color="0,1,0"/>
    <vehicle id="SN_65" type="cars" route="SN" depart="226" departLane="4" />
    <vehicle id="NS_66" type="cars" route="NS" depart="228" departLane="4" />
    <vehicle id="WN_67" type="cars" route="WN" depart="229" departLane="5" />
    <vehicle id="SW_68" type="cars" route="SW" depart="232" departLane="5" color="0,1,0"/>
    <vehicle id="SN_69" type="cars" route="SN" depart="233" departLane="4" />
    <vehicle id="SN_70" type="cars" route="SN" depart="235" departLane="4" color="0,1,0"/>
    <vehicle id="WE_28" type="cars" route="WE" depart="236" departLane="4"/>
    <vehicle id="EW_12" type="cars" route="EW" depart="236" departLane="4" />
    <vehicle id="WE_29" type="cars" route="WE" depart="239" departLane="4"/>
    <vehicle id="WE_30" type="cars" route="WE" depart="240" departLane="4"/>
    <vehicle id="NW_71" type="cars" route="NW" depart="241" departLane="3" color="0,1,0"/>
    <vehicle id="NS_72" type="cars" route="NS" depart="248" departLane="4" />
    <vehicle id="WE_31" type="cars" route="WE" depart="249" departLane="4"/>
    <vehicle id="WS_73" type="cars" route="WS" depart="249" departLane="3" color="0,1,0"/>
    <vehicle id="SN_74" type="cars" route="SN" depart="249" departLane="4" />
    <vehicle id="SN_75" type="cars" route="SN" depart="251" departLane="4" />
    <vehicle id="WE_32" type="cars" route="WE" depart="253" departLane="4"/>
    <vehicle id="SN_76" type="cars" route="SN" depart="253" departLane="4" />
    <vehicle id="SW_77" type="cars" route="SW" depart="253" departLane="5" />
    <vehicle id="SE_78" type="cars" route="SE" depart="253" departLane="3" />
    <vehicle id="WE_33" type="cars" route="WE" depart="254" departLane="4" color="0,1,0"/>
    <vehicle id="SE_79" type="cars" route="SE" depart="254" departLane="3" />
    <vehicle id="WE_34" type="cars" route="WE" depart="260" departLane="4"/>
    <vehicle id="EW_13" type="cars" route="EW" depart="260" departLane="4" />
    <vehicle id="WE_35" type="cars" route="WE" depart="262" departLane="4" color="0,1,0"/>
    <vehicle id="NW_80" type="cars" route="NW" depart="263" departLane="3" />
    <vehicle id="SN_81" type="cars" route="SN" depart="269" departLane="4" color="0,1,0"/>
    <vehicle id="WN_82" type="cars" route="WN" depart="270" departLane="5" />
    <vehicle id="NW_83" type="cars" route="NW" depart="271" departLane="3" />
    <vehicle id="EW_14" type="cars" route="EW" depart="272" departLane="4" />
    <vehicle id="WE_36" type="cars" route="WE" depart="275" departLane="4"/>
    <vehicle id="NS_84" type="cars" route="NS" depart="276" departLane="4" color="0,1,0"/>
    <vehicle id="SN_85" type="cars" route="SN" depart="277" departLane="4" color="0,1,0"/>
    <vehicle id="EW_15" type="cars" route="EW" depart="278" departLane="4" />
    <vehicle id="NW_86" type="cars" route="NW" depart="278" departLane="3" />
    <vehicle id="NW_87" type="cars" route="NW" depart="279" departLane="3" color="0,1,0"/>
    <vehicle id="SW_88" type="cars" route="SW" depart="281" departLane="5" color="0,1,0"/>
    <vehicle id="WE_37" type="cars" route="WE" depart="282" departLane="4"/>
    <vehicle id="SE_89" type="cars" route="SE" depart="282" departLane="3" color="0,1,0"/>
    <vehicle id="EN_90" type="cars" route="EN" depart="283" departLane="3" />
    <vehicle id="EW_16" type="cars" route="EW" depart="289" departLane="4" />
    <vehicle id="WE_38" type="cars" route="WE" depart="292" departLane="4"/>
    <vehicle id="NS_91" type="cars" route="NS" depart="292" departLane="4" />
    <vehicle id="SN_92" type="cars" route="SN" depart="294" departLane="4" color="0,1,0"/>
    <vehicle id="WE_39" type="cars" route="WE" depart="296" departLane="4"/>
    <vehicle id="SN_93" type="cars" route="SN" depart="299" departLane="4" />
    <vehicle id="WE_40" type="cars" route="WE" depart="303" departLane="4"/>
    <vehicle id="SN_94" type="cars" route="SN" depart="304" departLane="4" />
    <vehicle id="NE_95" type="cars" route="NE" depart="306" departLane="5" />
    <vehicle id="SN_96" type="cars" route="SN" depart="307" departLane="4" />
    <vehicle id="SN_97" type="cars" route="SN" depart="309" departLane="4" />
    <vehicle id="EW_17" type="cars" route="EW" depart="313" departLane="4" />
    <vehicle id="EN_98" type="cars" route="EN" depart="313" departLane="3" color="0,1,0"/>
    <vehicle id="WE_41" type="cars" route="WE" depart="315" departLane="4"/>
    <vehicle id="WN_99" type="cars" route="WN" depart="320" departLane="5" />
    <vehicle id="SN_100" type="cars" route="SN" depart="321" departLane="4" />
    <vehicle id="ES_101" type="cars" route="ES" depart="327" departLane="5" />
    <vehicle id="SN_102" type="cars" route="SN" depart="329" departLane="4" />
    <vehicle id="EW_18" type="cars" route="EW" depart="331" departLane="4" />
    <vehicle id="WE_42" type="cars" route="WE" depart="338" departLane="4"/>
    <vehicle id="SN_103" type="cars" route="SN" depart="339" departLane="4" color="0,1,0"/>
    <vehicle id="WE_43" type="cars" route="WE" depart="341" departLane="4"/>
    <vehicle id="SN_104" type="cars" route="SN" depart="341" departLane="4" />
    <vehicle id="WE_44" type="cars" route="WE" depart="342" departLane="4"/>
    <vehicle id="NW_105" type="cars" route="NW" depart="348" departLane="3" />
    <vehicle id="SN_106" type="cars" route="SN" depart="348" departLane="4" />
    <vehicle id="WN_107" type="cars" route="WN" depart="351" departLane="5" />
    <vehicle id="SN_108" type="cars" route="SN" depart="353" departLane="4" color="0,1,0"/>
    <vehicle id="EW_19" type="cars" route="EW" depart="354" departLane="4" color="0,1,0"/>
    <vehicle id="EW_20" type="cars" route="EW" depart="355" departLane="4" />
    <vehicle id="NS_109" type="cars" route="NS" depart="355" departLane="4" />
    <vehicle id="SN_110" type="cars" route="SN" depart="355" departLane="4" />
    <vehicle id="SE_111" type="cars" route="SE" depart="356" departLane="3" />
    <vehicle id="NW_112" type="cars" route="NW" depart="357" departLane="3" color="0,1,0"/>
    <vehicle id="SE_113" type="cars" route="SE" depart="357" departLane="3" />
    <vehicle id="NW_114" type="cars" route="NW" depart="360" departLane="3" color="0,1,0"/>
    <vehicle id="WE_45" type="cars" route="WE" depart="361" departLane="4" color="0,1,0"/>
    <vehicle id="SN_115" type="cars" route="SN" depart="368" departLane="4" />
    <vehicle id="WE_46" type="cars" route="WE" depart="374" departLane="4"/>
    <vehicle id="SN_116" type="cars" route="SN" depart="375" departLane="4" />
    <vehicle id="EW_21" type="cars" route="EW" depart="377" departLane="4" />
    <vehicle id="EW_22" type="cars" route="EW" depart="379" departLane="4" />
    <vehicle id="SN_117" type="cars" route="SN" depart="379" departLane="4" />
    <vehicle id="SN_118" type="cars" route="SN" depart="380" departLane="4" />
    <vehicle id="WE_47" type="cars" route="WE" depart="381" departLane="4"/>
    <vehicle id="WE_48" type="cars" route="WE" depart="383" departLane="4"/>
    <vehicle id="WN_119" type="cars" route="WN" depart="384" departLane="5" />
    <vehicle id="WE_49" type="cars" route="WE" depart="386" departLane="4" color="0,1,0"/>
    <vehicle id="WS_120" type="cars" route="WS" depart="387" departLane="3" />
    <vehicle id="NS_121" type="cars" route="NS" depart="387" departLane="4" color="0,1,0"/>
    <vehicle id="SN_122" type="cars" route="SN" depart="388" departLane="4" color="0,1,0"/>
    <vehicle id="SN_123" type="cars" route="SN" depart="394" departLane="4" />
    <vehicle id="EW_23" type="cars" route="EW" depart="395" departLane="4" />
    <vehicle id="NS_124" type="cars" route="NS" depart="400" departLane="4" color="0,1,0"/>
    <vehicle id="WN_125" type="cars" route="WN" depart="401" departLane="5" />
    <vehicle id="NS_126" type="cars" route="NS" depart="402" departLane="4" />
    <vehicle id="WE_50" type="cars" route="WE" depart="405" departLane="4"/>
    <vehicle id="WE_51" type="cars" route="WE" depart="406" departLane="4"/>
    <vehicle id="SN_127" type="cars" route="SN" depart="406" departLane="4" color="0,1,0"/>
    <vehicle id="WN_128" type="cars" route="WN" depart="409" departLane="5" />
    <vehicle id="EW_24" type="cars" route="EW" depart="410" departLane="4" />
    <vehicle id="SN_129" type="cars" route="SN" depart="411" departLane="4" color="0,1,0"/>
    <vehicle id="WE_52" type="cars" route="WE" depart="416" departLane="4"/>
    <vehicle id="ES_130" type="cars" route="ES" depart="416" departLane="5" />
    <vehicle id="WE_53" type="cars" route="WE" depart="420" departLane="4" color="0,1,0"/>
    <vehicle id="EW_25" type="cars" route="EW" depart="421" departLane="4" color="0,1,0"/>
    <vehicle id="WE_54" type="cars" route="WE" depart="425" departLane="4"/>
    <vehicle id="ES_131" type="cars" route="ES" depart="426" departLane="5" color="0,1,0"/>
    <vehicle id="WN_132" type="cars" route="WN" depart="427" departLane="5" />
    <vehicle id="SN_133" type="cars" route="SN" depart="428" departLane="4" />
    <vehicle id="EW_26" type="cars" route="EW" depart="437" departLane="4" />
    <vehicle id="WE_55" type="cars" route="WE" depart="438" departLane="4" color="0,1,0"/>
    <vehicle id="WE_56" type="cars" route="WE" depart="442" departLane="4"/>
    <vehicle id="SE_134" type="cars" route="SE" depart="444" departLane="3" />
    <vehicle id="SN_135" type="cars" route="SN" depart="446" departLane="4" />
    <vehicle id="NW_136" type="cars" route="NW" depart="450" departLane="3" color="0,1,0"/>
    <vehicle id="NS_137" type="cars" route="NS" depart="452" departLane="4" />
    <vehicle id="NE_138" type="cars" route="NE" depart="452" departLane="5" />
    <vehicle id="NW_139" type="cars" route="NW" depart="452" departLane="3" />
    <vehicle id="WE_57" type="cars" route="WE" depart="455" departLane="4" color="0,1,0"/>
    <vehicle id="NS_140" type="cars" route="NS" depart="455" departLane="4" color="0,1,0"/>
    <vehicle id="SW_141" type="cars" route="SW" depart="458" departLane="5" />
    <vehicle id="NW_142" type="cars" route="NW" depart="466" departLane="3" />
    <vehicle id="SN_143" type="cars" route="SN" depart="467" departLane="4" />
    <vehicle id="NS_144" type="cars" route="NS" depart="470" departLane="4" />
    <vehicle id="SN_145" type="cars" route="SN" depart="474" departLane="4" color="0,1,0"/>
    <vehicle id="SN_146" type="cars" route="SN" depart="478" departLane="4" color="0,1,0"/>
    <vehicle id="SN_147" type="cars" route="SN" depart="479" departLane="4" />
    <vehicle id="EW_27" type="cars" route="EW" depart="484" departLane="4" color="0,1,0"/>
    <vehicle id="ES_148" type="cars" route="ES" depart="484" departLane="5" color="0,1,0"/>
    <vehicle id="WE_58" type="cars" route="WE" depart="486" departLane="4" color="0,1,0"/>
    <vehicle id="NS_149" type="cars" route="NS" depart="486" departLane="4" />
    <vehicle id="EW_28" type="cars" route="EW" depart="487" departLane="4" />
    <vehicle id="EW_29" type="cars" route="EW" depart="488" departLane="4" color="0,1,0"/>
    <vehicle id="WE_59" type="cars" route="WE" depart="489" departLane="4"/>
    <vehicle id="SN_150" type="cars" route="SN" depart="494" departLane="4" />
    <vehicle id="WE_60" type="cars" route="WE" depart="496" departLane="4"/>
    <vehicle id="SN_151" type="cars" route="SN" depart="497" departLane="4" color="0,1,0"/>
    <vehicle id="WE_61" type="cars" route="WE" depart="498" departLane="4"/>
    <vehicle id="EW_30" type="cars" route="EW" depart="499" departLane="4" color="0,1,0"/>
    <vehicle id="SW_152" type="cars" route="SW" depart="501" departLane="5" />
    <vehicle id="WN_153" type="cars" route="WN" depart="502" departLane="5" />
    <vehicle id="SN_154" type="cars" route="SN" depart="503" departLane="4" />
    <vehicle id="NS_155" type="cars" route="NS" depart="507" departLane="4" />
    <vehicle id="WE_62" type="cars" route="WE" depart="508" departLane="4" color="0,1,0"/>
    <vehicle id="EW_31" type="cars" route="EW" depart="508" departLane="4" />
    <vehicle id="EW_32" type="cars" route="EW" depart="509" departLane="4" />
    <vehicle id="WE_63" type="cars" route="WE" depart="510" departLane="4"/>
    <vehicle id="SN_156" type="cars" route="SN" depart="510" departLane="4" />
    <vehicle id="SN_157" type="cars" route="SN" depart="512" departLane="4" />
    <vehicle id="WE_64" type="cars" route="WE" depart="513" departLane="4"/>
    <vehicle id="EW_33" type="cars" route="EW" depart="514" departLane="4" />
    <vehicle id="EW_34" type="cars" route="EW" depart="515" departLane="4" />
    <vehicle id="SN_158" type="cars" route="SN" depart="515" departLane="4" />
    <vehicle id="WE_65" type="cars" route="WE" depart="516" departLane="4"/>
    <vehicle id="NS_159" type="cars" route="NS" depart="519" departLane="4" />
    <vehicle id="NW_160" type="cars" route="NW" depart="520" departLane="3" />
    <vehicle id="SN_161" type="cars" route="SN" depart="520" departLane="4" />
    <vehicle id="EW_35" type="cars" route="EW" depart="521" departLane="4" color="0,1,0"/>
    <vehicle id="EN_162" type="cars" route="EN" depart="521" departLane="3" />
    <vehicle id="SN_163" type="cars" route="SN" depart="523" departLane="4" />
    <vehicle id="WE_66" type="cars" route="WE" depart="530" departLane="4"/>
    <vehicle id="ES_164" type="cars" route="ES" depart="535" departLane="5" />
    <vehicle id="SN_165" type="cars" route="SN" depart="535" departLane="4" color="0,1,0"/>
    <vehicle id="EW_36" type="cars" route="EW" depart="537" departLane="4" />
    <vehicle id="WN_166" type="cars" route="WN" depart="537" departLane="5" />
    <vehicle id="NS_167" type="cars" route="NS" depart="538" departLane="4" />
    <vehicle id="EW_37" type="cars" route="EW" depart="539" departLane="4" />
    <vehicle id="SN_168" type="cars" route="SN" depart="539" departLane="4" color="0,1,0"/>
    <vehicle id="SN_169" type="cars" route="SN" depart="540" departLane="4" color="0,1,0"/>
    <vehicle id="WE_67" type="cars" route="WE" depart="542" departLane="4"/>
    <vehicle id="WE_68" type="cars" route="WE" depart="543" departLane="4" color="0,1,0"/>
    <vehicle id="SN_170" type="cars" route="SN" depart="544" departLane="4" />
    <vehicle id="SE_171" type="cars" route="SE" depart="544" departLane="3" color="0,1,0"/>
    <vehicle id="NS_172" type="cars" route="NS" depart="545" departLane="4" />
    <vehicle id="EW_38" type="cars" route="EW" depart="557" departLane="4" />
    <vehicle id="WE_69" type="cars" route="WE" depart="558" departLane="4"/>
    <vehicle id="WN_173" type="cars" route="WN" depart="558" departLane="5" />
    <vehicle id="WE_70" type="cars" route="WE" depart="562" departLane="4"/>
    <vehicle id="ES_174" type="cars" route="ES" depart="565" departLane="5" color="0,1,0"/>
    <vehicle id="NW_175" type="cars" route="NW" depart="567" departLane="3" />
    <vehicle id="SN_176" type="cars" route="SN" depart="568" departLane="4" />
    <vehicle id="NW_177" type="cars" route="NW" depart="569" departLane="3" />
    <vehicle id="SN_178" type="cars" route="SN" depart="570" departLane="4" />
    <vehicle id="WE_71" type="cars" route="WE" depart="571" departLane="4"/>
    <vehicle id="EW_39" type="cars" route="EW" depart="572" departLane="4" />
    <vehicle id="NS_179" type="cars" route="NS" depart="572" departLane="4" />
    <vehicle id="WE_72" type="cars" route="WE" depart="574" departLane="4"/>
    <vehicle id="SN_180" type="cars" route="SN" depart="574" departLane="4" color="0,1,0"/>
    <vehicle id="WE_73" type="cars" route="WE" depart="578" departLane="4"/>
    <vehicle id="WE_74" type="cars" route="WE" depart="580" departLane="4" color="0,1,0"/>
    <vehicle id="SN_181" type="cars" route="SN" depart="582" departLane="4" />
    <vehicle id="EW_40" type="cars" route="EW" depart="587" departLane="4" />