<?xml version="1.0" encoding="UTF-8"?>

<!-- generated on 2025-07-10 14:23:08 by Eclipse SUMO netedit Version 1.22.0
<neteditConfiguration xmlns:xsi="http://www.w3.org/2001/XMLSchema-instance" xsi:noNamespaceSchemaLocation="http://sumo.dlr.de/xsd/neteditConfiguration.xsd">

    <input>
        <sumo-net-file value="/home/naderian/Desktop/Shakiba/MMSVCC/environment/network_model/single_intersection_bike_Exclusive.net.xml"/>
    </input>

    <output>
        <output-file value="/home/naderian/Desktop/Shakiba/MMSVCC/environment/network_model/single_intersection_bike_Exclusive.net.xml"/>
    </output>

    <processing>
        <geometry.min-radius.fix.railways value="false"/>
        <geometry.max-grade.fix value="false"/>
        <offset.disable-normalization value="true"/>
        <lefthand value="0"/>
    </processing>

    <junctions>
        <no-internal-links value="false"/>
        <no-turnarounds value="true"/>
        <junctions.corner-detail value="5"/>
        <junctions.limit-turn-speed value="5.50"/>
        <rectangular-lane-cut value="0"/>
    </junctions>

    <pedestrian>
        <walkingareas value="0"/>
    </pedestrian>

</neteditConfiguration>
-->

<net version="1.20" junctionCornerDetail="5" limitTurnSpeed="5.50" xmlns:xsi="http://www.w3.org/2001/XMLSchema-instance" xsi:noNamespaceSchemaLocation="http://sumo.dlr.de/xsd/net_file.xsd">

    <location netOffset="200.00,200.00" convBoundary="0.00,0.00,400.00,400.00" origBoundary="-200.00,-200.00,200.00,200.00" projParameter="!"/>

    <edge id=":1_0" function="internal">
        <lane id=":1_0_0" index="0" allow="bicycle" speed="6.08" length="2.38" width="1.00" shape="188.90,215.10 188.23,212.81"/>
    </edge>
    <edge id=":1_1" function="internal">
        <lane id=":1_1_0" index="0" allow="bicycle" speed="20.00" length="30.47" width="1.00" shape="188.90,215.10 190.34,190.32 192.10,184.90"/>
        <lane id=":1_1_1" index="1" allow="bicycle" speed="20.00" length="30.47" width="1.00" shape="189.90,215.10 190.40,206.11 191.50,200.00 192.60,193.89 193.10,184.90"/>
    </edge>
    <edge id=":1_3" function="internal">
        <lane id=":1_3_0" index="0" allow="bicycle" speed="12.07" length="16.01" width="1.00" shape="189.90,215.10 190.38,212.49 200.32,203.57"/>
    </edge>
    <edge id=":1_4" function="internal">
        <lane id=":1_4_0" index="0" disallow="pedestrian" speed="7.98" length="1.35" shape="192.00,215.10 191.87,213.75"/>
    </edge>
    <edge id=":1_5" function="internal">
        <lane id=":1_5_0" index="0" disallow="pedestrian" speed="20.00" length="30.42" shape="192.00,215.10 192.50,206.11 193.60,200.00 194.70,193.89 195.20,184.90"/>
        <lane id=":1_5_1" index="1" disallow="pedestrian" speed="20.00" length="30.42" shape="195.20,215.10 195.70,206.11 196.80,200.00 197.90,193.89 198.40,184.90"/>
    </edge>
    <edge id=":1_7" function="internal">
        <lane id=":1_7_0" index="0" disallow="pedestrian" speed="10.84" length="7.38" shape="198.40,215.10 199.44,207.79"/>
    </edge>
    <edge id=":1_32" function="internal">
        <lane id=":1_32_0" index="0" allow="bicycle" speed="6.08" length="6.08" width="1.00" shape="188.23,212.81 188.17,212.62 187.08,209.93 184.90,207.90"/>
    </edge>
    <edge id=":1_33" function="internal">
        <lane id=":1_33_0" index="0" allow="bicycle" speed="12.07" length="18.33" width="1.00" shape="200.32,203.57 201.72,202.31 211.81,194.09 215.10,193.10"/>
    </edge>
    <edge id=":1_34" function="internal">
        <lane id=":1_34_0" index="0" disallow="pedestrian" speed="7.98" length="12.77" shape="191.87,213.75 191.56,210.59 190.22,207.38 188.01,205.44 184.90,204.80"/>
    </edge>
    <edge id=":1_35" function="internal">
        <lane id=":1_35_0" index="0" disallow="pedestrian" speed="10.84" length="19.55" shape="199.44,207.79 202.58,202.57 207.79,199.44 215.10,198.40"/>
    </edge>
    <edge id=":1_8" function="internal">
        <lane id=":1_8_0" index="0" allow="bicycle" speed="6.10" length="1.83" width="1.00" shape="215.10,211.10 213.34,211.60"/>
    </edge>
    <edge id=":1_9" function="internal">
        <lane id=":1_9_0" index="0" allow="bicycle" speed="20.00" length="30.52" width="1.00" shape="215.10,211.10 190.61,210.04 184.90,207.90"/>
        <lane id=":1_9_1" index="1" allow="bicycle" speed="20.00" length="30.52" width="1.00" shape="215.10,210.10 206.11,209.60 200.00,208.50 193.89,207.40 184.90,206.90"/>
    </edge>
    <edge id=":1_11" function="internal">
        <lane id=":1_11_0" index="0" allow="bicycle" speed="12.16" length="16.42" width="1.00" shape="215.10,210.10 212.20,209.96 203.39,199.71"/>
    </edge>
    <edge id=":1_12" function="internal">
        <lane id=":1_12_0" index="0" disallow="pedestrian" speed="7.98" length="1.35" shape="215.10,208.00 213.75,208.13"/>
    </edge>
    <edge id=":1_13" function="internal">
        <lane id=":1_13_0" index="0" disallow="pedestrian" speed="20.00" length="30.42" shape="215.10,208.00 206.11,207.50 200.00,206.40 193.89,205.30 184.90,204.80"/>
        <lane id=":1_13_1" index="1" disallow="pedestrian" speed="20.00" length="30.42" shape="215.10,204.80 206.11,204.30 200.00,203.20 193.89,202.10 184.90,201.60"/>
    </edge>
    <edge id=":1_15" function="internal">
        <lane id=":1_15_0" index="0" disallow="pedestrian" speed="10.84" length="7.38" shape="215.10,201.60 207.79,200.56"/>
    </edge>
    <edge id=":1_36" function="internal">
        <lane id=":1_36_0" index="0" allow="bicycle" speed="6.10" length="6.69" width="1.00" shape="213.34,211.60 211.79,212.04 209.53,213.09 207.90,215.10"/>
    </edge>
    <edge id=":1_37" function="internal">
        <lane id=":1_37_0" index="0" allow="bicycle" speed="12.16" length="18.42" width="1.00" shape="203.39,199.71 201.92,197.99 193.32,187.43 193.10,184.90"/>
    </edge>
    <edge id=":1_38" function="internal">
        <lane id=":1_38_0" index="0" disallow="pedestrian" speed="7.98" length="12.77" shape="213.75,208.13 210.59,208.44 207.38,209.78 205.44,211.99 204.80,215.10"/>
    </edge>
    <edge id=":1_39" function="internal">
        <lane id=":1_39_0" index="0" disallow="pedestrian" speed="10.84" length="19.55" shape="207.79,200.56 202.57,197.42 199.44,192.21 198.40,184.90"/>
    </edge>
    <edge id=":1_16" function="internal">
        <lane id=":1_16_0" index="0" allow="bicycle" speed="6.11" length="2.36" width="1.00" shape="211.10,184.90 211.63,187.20"/>
    </edge>
    <edge id=":1_17" function="internal">
        <lane id=":1_17_0" index="0" allow="bicycle" speed="20.00" length="30.47" width="1.00" shape="211.10,184.90 209.65,209.72 207.90,215.10"/>
        <lane id=":1_17_1" index="1" allow="bicycle" speed="20.00" length="30.47" width="1.00" shape="210.10,184.90 209.60,193.89 208.50,200.00 207.40,206.11 206.90,215.10"/>
    </edge>
    <edge id=":1_19" function="internal">
        <lane id=":1_19_0" index="0" allow="bicycle" speed="12.08" length="15.82" width="1.00" shape="210.10,184.90 209.68,186.96 205.66,191.11 199.69,196.35"/>
    </edge>
    <edge id=":1_20" function="internal">
        <lane id=":1_20_0" index="0" disallow="pedestrian" speed="7.98" length="1.35" shape="208.00,184.90 208.13,186.25"/>
    </edge>
    <edge id=":1_21" function="internal">
        <lane id=":1_21_0" index="0" disallow="pedestrian" speed="20.00" length="30.42" shape="208.00,184.90 207.50,193.89 206.40,200.00 205.30,206.11 204.80,215.10"/>
        <lane id=":1_21_1" index="1" disallow="pedestrian" speed="20.00" length="30.42" shape="204.80,184.90 204.30,193.89 203.20,200.00 202.10,206.11 201.60,215.10"/>
    </edge>
    <edge id=":1_23" function="internal">
        <lane id=":1_23_0" index="0" disallow="pedestrian" speed="10.84" length="7.38" shape="201.60,184.90 200.56,192.21"/>
    </edge>
    <edge id=":1_40" function="internal">
        <lane id=":1_40_0" index="0" allow="bicycle" speed="6.11" length="6.19" width="1.00" shape="211.63,187.20 211.74,187.70 212.97,190.36 215.10,192.10"/>
    </edge>
    <edge id=":1_41" function="internal">
        <lane id=":1_41_0" index="0" allow="bicycle" speed="12.08" length="18.60" width="1.00" shape="199.69,196.35 198.61,197.30 191.47,203.61 187.61,206.64 184.90,206.90"/>
    </edge>
    <edge id=":1_42" function="internal">
        <lane id=":1_42_0" index="0" disallow="pedestrian" speed="7.98" length="12.77" shape="208.13,186.25 208.44,189.41 209.78,192.62 211.99,194.56 215.10,195.20"/>
    </edge>
    <edge id=":1_43" function="internal">
        <lane id=":1_43_0" index="0" disallow="pedestrian" speed="10.84" length="19.55" shape="200.56,192.21 197.42,197.42 192.21,200.56 184.90,201.60"/>
    </edge>
    <edge id=":1_24" function="internal">
        <lane id=":1_24_0" index="0" allow="bicycle" speed="6.15" length="1.99" width="1.00" shape="184.90,188.90 186.83,188.40"/>
    </edge>
    <edge id=":1_25" function="internal">
        <lane id=":1_25_0" index="0" allow="bicycle" speed="20.00" length="30.48" width="1.00" shape="184.90,188.90 209.12,190.19 215.10,192.10"/>
        <lane id=":1_25_1" index="1" allow="bicycle" speed="20.00" length="30.48" width="1.00" shape="184.90,189.90 193.89,190.40 200.00,191.50 206.11,192.60 215.10,193.10"/>
    </edge>
    <edge id=":1_27" function="internal">
        <lane id=":1_27_0" index="0" allow="bicycle" speed="12.15" length="16.48" width="1.00" shape="184.90,189.90 187.84,190.36 196.88,200.39"/>
    </edge>
    <edge id=":1_28" function="internal">
        <lane id=":1_28_0" index="0" disallow="pedestrian" speed="7.98" length="1.35" shape="184.90,192.00 186.25,191.87"/>
    </edge>
    <edge id=":1_29" function="internal">
        <lane id=":1_29_0" index="0" disallow="pedestrian" speed="20.00" length="30.42" shape="184.90,192.00 193.89,192.50 200.00,193.60 206.11,194.70 215.10,195.20"/>
        <lane id=":1_29_1" index="1" disallow="pedestrian" speed="20.00" length="30.42" shape="184.90,195.20 193.89,195.70 200.00,196.80 206.11,197.90 215.10,198.40"/>
    </edge>
    <edge id=":1_31" function="internal">
        <lane id=":1_31_0" index="0" disallow="pedestrian" speed="10.84" length="7.38" shape="184.90,198.40 192.21,199.44"/>
    </edge>
    <edge id=":1_44" function="internal">
        <lane id=":1_44_0" index="0" allow="bicycle" speed="6.15" length="6.68" width="1.00" shape="186.83,188.40 187.10,188.33 189.10,187.89 190.95,186.74 192.10,184.90"/>
    </edge>
    <edge id=":1_45" function="internal">
        <lane id=":1_45_0" index="0" allow="bicycle" speed="12.15" length="18.31" width="1.00" shape="196.88,200.39 198.07,201.71 206.81,212.31 206.90,215.10"/>
    </edge>
    <edge id=":1_46" function="internal">
        <lane id=":1_46_0" index="0" disallow="pedestrian" speed="7.98" length="12.77" shape="186.25,191.87 189.41,191.56 192.62,190.22 194.56,188.01 195.20,184.90"/>
    </edge>
    <edge id=":1_47" function="internal">
        <lane id=":1_47_0" index="0" disallow="pedestrian" speed="10.84" length="19.55" shape="192.21,199.44 197.42,202.58 200.56,207.79 201.60,215.10"/>
    </edge>
    <edge id=":1_c0" function="crossing" crossingEdges="1_5 5_1">
        <lane id=":1_c0_0" index="0" allow="pedestrian" speed="2.78" length="20.00" width="3.50" shape="208.40,213.35 188.40,213.35" outlineShape="208.50,215.10 188.30,215.10 188.30,213.05 188.05,211.60 188.40,211.60 208.40,211.60 210.43,212.34 210.08,212.47 209.14,213.16 208.59,214.03"/>
    </edge>
    <edge id=":1_c1" function="crossing" crossingEdges="1_3 3_1 1_4 4_1">
        <lane id=":1_c1_0" index="0" allow="pedestrian" speed="2.78" length="30.94" width="3.50" customShape="1" shape="190.09,188.36 210.19,211.88" outlineShape="191.42,187.22 211.52,210.74 211.78,211.92 211.38,211.99 210.08,212.47 209.14,213.16 209.07,213.27 187.64,188.18 188.62,188.01 189.92,187.53 190.86,186.84"/>
    </edge>
    <edge id=":1_c2" function="crossing" crossingEdges="1_4 4_1">
        <lane id=":1_c2_0" index="0" allow="pedestrian" speed="2.78" length="20.25" width="3.50" customShape="1" shape="213.36,191.34 213.28,211.59" outlineShape="215.11,191.35 215.03,211.60 213.05,211.70 211.53,211.96 211.53,211.58 211.61,191.33 215.10,191.25 215.10,189.60 213.60,184.90 211.60,184.90 211.70,186.95 211.99,188.62 212.26,189.34"/>
    </edge>
    <edge id=":1_c3" function="crossing" crossingEdges="1_2 2_1 1_3 3_1">
        <lane id=":1_c3_0" index="0" allow="pedestrian" speed="2.78" length="30.59" width="3.50" customShape="1" shape="188.94,209.83 211.74,189.44" outlineShape="187.77,208.53 210.57,188.14 211.86,187.86 211.99,188.62 212.47,189.92 213.01,190.65 188.26,212.79 188.01,211.38 187.53,210.08 186.88,209.19"/>
    </edge>
    <edge id=":1_c4" function="crossing" crossingEdges="1_3 3_1">
        <lane id=":1_c4_0" index="0" allow="pedestrian" speed="2.78" length="20.00" width="3.50" shape="191.60,186.65 211.60,186.65" outlineShape="191.50,184.90 211.70,184.90 211.70,186.95 211.95,188.40 211.60,188.40 191.60,188.40 189.57,187.66 189.92,187.53 190.86,186.84 191.41,185.97"/>
    </edge>
    <edge id=":1_c5" function="crossing" crossingEdges="1_2 2_1">
        <lane id=":1_c5_0" index="0" allow="pedestrian" speed="2.78" length="20.00" width="3.50" shape="186.65,208.40 186.65,188.40" outlineShape="184.90,208.50 184.90,188.30 186.95,188.30 188.40,188.05 188.40,188.40 188.40,208.40 187.66,210.43 187.53,210.08 186.84,209.14 185.97,208.59"/>
    </edge>
    <edge id=":1_w0" function="walkingarea">
        <lane id=":1_w0_0" index="0" allow="pedestrian" speed="2.78" length="4.33" width="3.50" shape="184.90,208.40 184.90,210.40 186.40,215.10 188.40,215.10 188.30,213.05 188.01,211.38 187.53,210.08 186.84,209.14 185.97,208.59"/>
    </edge>
    <edge id=":1_w1" function="walkingarea">
        <lane id=":1_w1_0" index="0" allow="pedestrian" speed="2.78" length="4.12" width="3.50" shape="208.40,215.10 210.40,215.10 215.10,213.60 215.10,211.60 213.05,211.70 211.38,211.99 210.08,212.47 209.14,213.16 208.59,214.03"/>
    </edge>
    <edge id=":1_w2" function="walkingarea">
        <lane id=":1_w2_0" index="0" allow="pedestrian" speed="2.78" length="4.04" width="3.50" shape="215.11,191.35 215.10,191.60 215.10,189.60 213.60,184.90 211.60,184.90 211.70,186.95 211.99,188.62 212.47,189.92 213.16,190.86 214.03,191.41"/>
    </edge>
    <edge id=":1_w3" function="walkingarea">
        <lane id=":1_w3_0" index="0" allow="pedestrian" speed="2.78" length="4.20" width="3.50" shape="191.60,184.90 189.60,184.90 184.90,186.40 184.90,188.40 186.95,188.30 188.62,188.01 189.92,187.53 190.86,186.84 191.41,185.97"/>
    </edge>
    <edge id=":2_0" function="internal">
        <lane id=":2_0_0" index="0" disallow="pedestrian" speed="3.65" length="4.67" shape="0.00,201.60 -1.20,200.80 -1.60,200.00 -1.20,199.20 0.00,198.40"/>
    </edge>
    <edge id=":2_w0" function="walkingarea">
        <lane id=":2_w0_0" index="0" allow="pedestrian" speed="2.78" length="22.00" width="2.00" shape="0.00,188.40 0.00,186.40 0.00,210.40 0.00,208.40"/>
    </edge>
    <edge id=":3_0" function="internal">
        <lane id=":3_0_0" index="0" disallow="pedestrian" speed="3.65" length="4.67" shape="198.40,0.00 199.20,-1.20 200.00,-1.60 200.80,-1.20 201.60,0.00"/>
    </edge>
    <edge id=":3_w0" function="walkingarea">
        <lane id=":3_w0_0" index="0" allow="pedestrian" speed="2.78" length="22.00" width="2.00" shape="211.60,0.00 213.60,0.00 189.60,0.00 191.60,0.00"/>
    </edge>
    <edge id=":4_0" function="internal">
        <lane id=":4_0_0" index="0" disallow="pedestrian" speed="3.65" length="4.67" shape="400.00,198.40 401.20,199.20 401.60,200.00 401.20,200.80 400.00,201.60"/>
    </edge>
    <edge id=":4_w0" function="walkingarea">
        <lane id=":4_w0_0" index="0" allow="pedestrian" speed="2.78" length="22.00" width="2.00" shape="400.00,211.60 400.00,213.60 400.00,189.60 400.00,191.60"/>
    </edge>
    <edge id=":5_0" function="internal">
        <lane id=":5_0_0" index="0" disallow="pedestrian" speed="3.65" length="4.67" shape="201.60,400.00 200.80,401.20 200.00,401.60 199.20,401.20 198.40,400.00"/>
    </edge>
    <edge id=":5_w0" function="walkingarea">
        <lane id=":5_w0_0" index="0" allow="pedestrian" speed="2.78" length="22.00" width="2.00" shape="188.40,400.00 186.40,400.00 210.40,400.00 208.40,400.00"/>
    </edge>

    <edge id="1_2" from="1" to="2" priority="10">
        <lane id="1_2_0" index="0" allow="pedestrian" speed="20.00" length="184.90" width="2.00" shape="184.90,209.40 0.00,209.40"/>
        <lane id="1_2_1" index="1" allow="bicycle" speed="20.00" length="184.90" width="1.00" shape="184.90,207.90 0.00,207.90"/>
        <lane id="1_2_2" index="2" allow="bicycle" speed="20.00" length="184.90" width="1.00" shape="184.90,206.90 0.00,206.90"/>
        <lane id="1_2_3" index="3" disallow="pedestrian" speed="20.00" length="184.90" shape="184.90,204.80 0.00,204.80"/>
        <lane id="1_2_4" index="4" disallow="pedestrian" speed="20.00" length="184.90" shape="184.90,201.60 0.00,201.60"/>
    </edge>
    <edge id="1_3" from="1" to="3" priority="10">
        <lane id="1_3_0" index="0" allow="pedestrian" speed="20.00" length="184.90" width="2.00" shape="190.60,184.90 190.60,0.00"/>
        <lane id="1_3_1" index="1" allow="bicycle" speed="20.00" length="184.90" width="1.00" shape="192.10,184.90 192.10,0.00"/>
        <lane id="1_3_2" index="2" allow="bicycle" speed="20.00" length="184.90" width="1.00" shape="193.10,184.90 193.10,0.00"/>
        <lane id="1_3_3" index="3" disallow="pedestrian" speed="20.00" length="184.90" shape="195.20,184.90 195.20,0.00"/>
        <lane id="1_3_4" index="4" disallow="pedestrian" speed="20.00" length="184.90" shape="198.40,184.90 198.40,0.00"/>
    </edge>
    <edge id="1_4" from="1" to="4" priority="10">
        <lane id="1_4_0" index="0" allow="pedestrian" speed="20.00" length="184.90" width="2.00" shape="215.10,190.60 400.00,190.60"/>
        <lane id="1_4_1" index="1" allow="bicycle" speed="20.00" length="184.90" width="1.00" shape="215.10,192.10 400.00,192.10"/>
        <lane id="1_4_2" index="2" allow="bicycle" speed="20.00" length="184.90" width="1.00" shape="215.10,193.10 400.00,193.10"/>
        <lane id="1_4_3" index="3" disallow="pedestrian" speed="20.00" length="184.90" shape="215.10,195.20 400.00,195.20"/>
        <lane id="1_4_4" index="4" disallow="pedestrian" speed="20.00" length="184.90" shape="215.10,198.40 400.00,198.40"/>
    </edge>
    <edge id="1_5" from="1" to="5" priority="10">
        <lane id="1_5_0" index="0" allow="pedestrian" speed="20.00" length="184.90" width="2.00" shape="209.40,215.10 209.40,400.00"/>
        <lane id="1_5_1" index="1" allow="bicycle" speed="20.00" length="184.90" width="1.00" shape="207.90,215.10 207.90,400.00"/>
        <lane id="1_5_2" index="2" allow="bicycle" speed="20.00" length="184.90" width="1.00" shape="206.90,215.10 206.90,400.00"/>
        <lane id="1_5_3" index="3" disallow="pedestrian" speed="20.00" length="184.90" shape="204.80,215.10 204.80,400.00"/>
        <lane id="1_5_4" index="4" disallow="pedestrian" speed="20.00" length="184.90" shape="201.60,215.10 201.60,400.00"/>
    </edge>
    <edge id="2_1" from="2" to="1" priority="10">
        <lane id="2_1_0" index="0" allow="pedestrian" speed="20.00" length="184.90" width="2.00" shape="0.00,187.40 184.90,187.40"/>
        <lane id="2_1_1" index="1" allow="bicycle" speed="20.00" length="184.90" width="1.00" shape="0.00,188.90 184.90,188.90"/>
        <lane id="2_1_2" index="2" allow="bicycle" speed="20.00" length="184.90" width="1.00" shape="0.00,189.90 184.90,189.90"/>
        <lane id="2_1_3" index="3" disallow="pedestrian" speed="20.00" length="184.90" shape="0.00,192.00 184.90,192.00"/>
        <lane id="2_1_4" index="4" disallow="pedestrian" speed="20.00" length="184.90" shape="0.00,195.20 184.90,195.20"/>
        <lane id="2_1_5" index="5" disallow="pedestrian" speed="20.00" length="184.90" shape="0.00,198.40 184.90,198.40"/>
    </edge>
    <edge id="3_1" from="3" to="1" priority="10">
        <lane id="3_1_0" index="0" allow="pedestrian" speed="20.00" length="184.90" width="2.00" shape="212.60,0.00 212.60,184.90"/>
        <lane id="3_1_1" index="1" allow="bicycle" speed="20.00" length="184.90" width="1.00" shape="211.10,0.00 211.10,184.90"/>
        <lane id="3_1_2" index="2" allow="bicycle" speed="20.00" length="184.90" width="1.00" shape="210.10,0.00 210.10,184.90"/>
        <lane id="3_1_3" index="3" disallow="pedestrian" speed="20.00" length="184.90" shape="208.00,0.00 208.00,184.90"/>
        <lane id="3_1_4" index="4" disallow="pedestrian" speed="20.00" length="184.90" shape="204.80,0.00 204.80,184.90"/>
        <lane id="3_1_5" index="5" disallow="pedestrian" speed="20.00" length="184.90" shape="201.60,0.00 201.60,184.90"/>
    </edge>
    <edge id="4_1" from="4" to="1" priority="10">
        <lane id="4_1_0" index="0" allow="pedestrian" speed="20.00" length="184.90" width="2.00" shape="400.00,212.60 215.10,212.60"/>
        <lane id="4_1_1" index="1" allow="bicycle" speed="20.00" length="184.90" width="1.00" shape="400.00,211.10 215.10,211.10"/>
        <lane id="4_1_2" index="2" allow="bicycle" speed="20.00" length="184.90" width="1.00" shape="400.00,210.10 215.10,210.10"/>
        <lane id="4_1_3" index="3" disallow="pedestrian" speed="20.00" length="184.90" shape="400.00,208.00 215.10,208.00"/>
        <lane id="4_1_4" index="4" disallow="pedestrian" speed="20.00" length="184.90" shape="400.00,204.80 215.10,204.80"/>
        <lane id="4_1_5" index="5" disallow="pedestrian" speed="20.00" length="184.90" shape="400.00,201.60 215.10,201.60"/>
    </edge>
    <edge id="5_1" from="5" to="1" priority="10">
        <lane id="5_1_0" index="0" allow="pedestrian" speed="20.00" length="184.90" width="2.00" shape="187.40,400.00 187.40,215.10"/>
        <lane id="5_1_1" index="1" allow="bicycle" speed="20.00" length="184.90" width="1.00" shape="188.90,400.00 188.90,215.10"/>
        <lane id="5_1_2" index="2" allow="bicycle" speed="20.00" length="184.90" width="1.00" shape="189.90,400.00 189.90,215.10"/>
        <lane id="5_1_3" index="3" disallow="pedestrian" speed="20.00" length="184.90" shape="192.00,400.00 192.00,215.10"/>
        <lane id="5_1_4" index="4" disallow="pedestrian" speed="20.00" length="184.90" shape="195.20,400.00 195.20,215.10"/>
        <lane id="5_1_5" index="5" disallow="pedestrian" speed="20.00" length="184.90" shape="198.40,400.00 198.40,215.10"/>
    </edge>

    <tlLogic id="1" type="static" programID="0" offset="0">
        <phase duration="19" state="gGGggGGrsrrrsrrrgGGggGGrsrrrsrrrrrGrrG"/>
        <phase duration="5"  state="gGGggGGrsrrrsrrrgGGggGGrsrrrsrrrrrrrrr"/>
        <phase duration="5"  state="yyyyyyyrsrrrsrrryyyyyyyrsrrrsrrrrrrrrr"/>
        <phase duration="6"  state="rrrrrrrGsrrrsrrrrrrrrrrGsrrrsrrrrrrrrr"/>
        <phase duration="5"  state="rrrrrrrysrrrsrrrrrrrrrrysrrrsrrrrrrrrr"/>
        <phase duration="19" state="srrrsrrrgGGggGGrsrrrsrrrgGGggGGrGrrrGr"/>
        <phase duration="5"  state="srrrsrrrgGGggGGrsrrrsrrrgGGggGGrrrrrrr"/>
        <phase duration="5"  state="srrrsrrryyyyyyyrsrrrsrrryyyyyyyrrrrrrr"/>
        <phase duration="6"  state="srrrsrrrrrrrrrrGsrrrsrrrrrrrrrrGrrrrrr"/>
        <phase duration="5"  state="srrrsrrrrrrrrrrysrrrsrrrrrrrrrryrrrrrr"/>
        <phase duration="5"  state="rrrrrrrrrrrrrrrrrrrrrrrrrrrrrrrrGGGGGG"/>
        <phase duration="5"  state="rrrrrrrrrrrrrrrrrrrrrrrrrrrrrrrrrrrrrr"/>
    </tlLogic>

    <junction id="1" type="traffic_light_right_on_red" x="200.00" y="200.00" incLanes="5_1_0 5_1_1 5_1_2 5_1_3 5_1_4 5_1_5 4_1_0 4_1_1 4_1_2 4_1_3 4_1_4 4_1_5 3_1_0 3_1_1 3_1_2 3_1_3 3_1_4 3_1_5 2_1_0 2_1_1 2_1_2 2_1_3 2_1_4 2_1_5 :1_w1_0 :1_w3_0 :1_w2_0 :1_w0_0" intLanes=":1_32_0 :1_1_0 :1_1_1 :1_33_0 :1_34_0 :1_5_0 :1_5_1 :1_35_0 :1_36_0 :1_9_0 :1_9_1 :1_37_0 :1_38_0 :1_13_0 :1_13_1 :1_39_0 :1_40_0 :1_17_0 :1_17_1 :1_41_0 :1_42_0 :1_21_0 :1_21_1 :1_43_0 :1_44_0 :1_25_0 :1_25_1 :1_45_0 :1_46_0 :1_29_0 :1_29_1 :1_47_0 :1_c0_0 :1_c1_0 :1_c2_0 :1_c3_0 :1_c4_0 :1_c5_0" shape="186.40,215.10 210.40,215.10 210.92,214.27 211.58,213.97 212.49,213.77 213.66,213.64 215.10,213.60 215.10,189.60 214.27,189.08 213.97,188.42 213.77,187.51 213.64,186.34 213.60,184.90 189.60,184.90 189.08,185.73 188.42,186.03 187.51,186.23 186.34,186.36 184.90,186.40 184.90,210.40 185.73,210.92 186.03,211.58 186.23,212.49 186.36,213.66">
        <request index="0"  response="10100100000000000000000110011000000000" foes="10100100000000000000000000001000000000" cont="1"/>
        <request index="1"  response="01101110001000000000000000000000000000" foes="01101111111111100010000110011000010000" cont="0"/>
        <request index="2"  response="01101110001000000000000000100000000000" foes="01101111111110100010000110111000010000" cont="0"/>
        <request index="3"  response="00011110001000011101101000100001100000" foes="00011111101100011101101110111001110000" cont="1"/>
        <request index="4"  response="10100100000000000000000110011000001110" foes="10100100000000000010000110011000001110" cont="1"/>
        <request index="5"  response="01101110001000000000001000100000000000" foes="01101111111110100010001110111000001000" cont="0"/>
        <request index="6"  response="01101110001000000000001000100000000000" foes="01101111111110100010001110111000001000" cont="0"/>
        <request index="7"  response="00011110001000011001101000100000000000" foes="00011111101000011001101110111000000000" cont="1"/>
        <request index="8"  response="00011100000000011001100000000000000000" foes="00011100000000000000100000000000000000" cont="1"/>
        <request index="9"  response="10111000000000011001100000000011111111" foes="10111010001000011001100001000011111111" cont="0"/>
        <request index="10" response="10111000000000011011100000000011111110" foes="10111010001000011011100001000011111110" cont="0"/>
        <request index="11" response="01111001110110111011100110000011101100" foes="01111001110110111011100111000011101100" cont="1"/>
        <request index="12" response="00011100000000011001100000111000000000" foes="00011100001000011001100000111000000000" cont="1"/>
        <request index="13" response="10111000000000111011100000000011111110" foes="10111010001000111011100000100011111110" cont="0"/>
        <request index="14" response="10111000000000111011100000000011111110" foes="10111010001000111011100000100011111110" cont="0"/>
        <request index="15" response="01111001100110111011100000000011101000" foes="01111001100110111011100000000011101000" cont="1"/>
        <request index="16" response="01111001100110000000000000000000000000" foes="01111000000010000000000000000000000000" cont="1"/>
        <request index="17" response="01101100000000000000001000100000000000" foes="01101101100110000100001111111110001000" cont="0"/>
        <request index="18" response="01101100001000000000001000100000000000" foes="01101101101110000100001111111010001000" cont="0"/>
        <request index="19" response="11101010001000011000001000100001110110" foes="11101011101110011100001110110001110110" cont="1"/>
        <request index="20" response="01111001100110000011100000000000000000" foes="01111001100110000011100000000000001000" cont="1"/>
        <request index="21" response="01101110001000000000001000100000000000" foes="01101111101110000010001111111010001000" cont="0"/>
        <request index="22" response="01101110001000000000001000100000000000" foes="01101111101110000010001111111010001000" cont="0"/>
        <request index="23" response="11101010001000000000001000100001100110" foes="11101011101110000000001110100001100110" cont="1"/>
        <request index="24" response="11101000000000000000000000000001100110" foes="11101000000000000000000000000000000010" cont="1"/>
        <request index="25" response="10111000000000111111110000000001100110" foes="10111000010000111111111000100001100110" cont="0"/>
        <request index="26" response="10111000000000111111100000000001101110" foes="10111000010000111111101000100001101110" cont="0"/>
        <request index="27" response="10100101100000111011000111011011101110" foes="10100101110000111011000111011011101110" cont="1"/>
        <request index="28" response="11101000001110000000000000000001100110" foes="11101000001110000000000000100001100110" cont="1"/>
        <request index="29" response="10111000000000111111100000000011101110" foes="10111000001000111111101000100011101110" cont="0"/>
        <request index="30" response="10111000000000111111100000000011101110" foes="10111000001000111111101000100011101110" cont="0"/>
        <request index="31" response="10100100000000111010000110011011101110" foes="10100100000000111010000110011011101110" cont="1"/>
        <request index="32" response="00000000000000000000000000000000000000" foes="00000010001000011001100001000111111111" cont="0"/>
        <request index="33" response="00000000000000000000000000000000000000" foes="00000001110111111111111111111111101110" cont="0"/>
        <request index="34" response="00000000000000000000000000000000000000" foes="00000001100110000100011111111110001000" cont="0"/>
        <request index="35" response="00000000000000000000000000000000000000" foes="00000011111111111111111110111001110111" cont="0"/>
        <request index="36" response="00000000000000000000000000000000000000" foes="00000000010001111111111000100001100110" cont="0"/>
        <request index="37" response="00000000000000000000000000000000000000" foes="00000011111111100010000110011000010001" cont="0"/>
    </junction>
    <junction id="2" type="priority" x="0.00" y="200.00" incLanes="1_2_0 1_2_1 1_2_2 1_2_3 1_2_4" intLanes=":2_0_0" shape="0.00,200.00 0.00,210.40 0.00,200.00">
        <request index="0" response="0" foes="0" cont="0"/>
    </junction>
    <junction id="3" type="priority" x="200.00" y="0.00" incLanes="1_3_0 1_3_1 1_3_2 1_3_3 1_3_4" intLanes=":3_0_0" shape="200.00,0.00 189.60,0.00 200.00,0.00">
        <request index="0" response="0" foes="0" cont="0"/>
    </junction>