<additional>
   <tlLogic id="1" type="static" programID="my_program" offset="15">

            <phase duration="30" state="gGrgGGrgrrrrrrgGrgGGrgrrrrrrrrGrrG"/>
            <phase duration="10" state="gGrgGGGgrrrrrrgrrrrrrgrrrrrrrrrrrG"/>
            <phase duration="10" state="grrrrrrgrrrrrrgGrgGGGgrrrrrrrrGrrr"/>
            <phase duration="10" state="grGrrrGgrrgrrrgrGrrrGgrrgrrrrrrrrr"/>
            <phase duration="30" state="grrrrrrgGrgGGrgrrrrrrgGrgGGrGrrrGr"/>
            <phase duration="10" state="grrrrrrgrrrrrrgrrrrrrgGrgGGGrrrrGr"/>
            <phase duration="10" state="grrrrrrgGrgGGGgrrrrrrgrrrrrrGrrrrr"/>
            <phase duration="10" state="grrgrrrgrGrrrGgrrgrrrgrGrrrGrrrrrr"/>
            <phase duration="10" state="gGgrrrrgGgrrrrgGgrrrrgGgrrrrGGGGGG"/>
            <phase duration="5" state="grryyyrgrrrrrrgrryyyrgrrrrrrrrrrrr"/>
            <phase duration="5" state="grryyyygrrrrrrgrrrrrrgrrrrrrrrrrrr"/>
            <phase duration="5" state="grrrrrrgrrrrrrgrryyyygrrrrrrrrrrrr"/>
            <phase duration="5" state="grrrrrygrryrrrgrrrrrygrryrrrrrrrrr"/>
            <phase duration="5" state="grrrrrrgyryyyrgrrrrrrgyryyyrrrrrrr"/>
            <phase duration="5" state="grrrrrrgrrrrrrgrrrrrrgyryyyyrrrrrr"/>
            <phase duration="5" state="grrrrrrgrryyyygrrrrrrgrrrrrrrrrrrr"/>
            <phase duration="5" state="grryrrrgrrrrrygrryrrrgrrrrryrrrrrr"/>
            <phase duration="20" state="rrrrrrrrrrrrrrrrrrrrrrrrrrrrrrrrrr"/>
                
   </tlLogic>
</additional>
