<additional>
   <tlLogic id="1" type="static" programID="my_program" offset="15">

            <phase duration="30" state="gGGgGrgrrrrrgGGgGrgrrrrrrrGrrGGrrG"/>
            <phase duration="10" state="gGGgGGgrrGrrgrrrrrgrrrrrrrrrrGrrrG"/>
            <phase duration="10" state="grrrrrgrrrrrgGGgGGgrrGrrrrGrrrGrrr"/>
            <phase duration="10" state="grrrrGgrrGrrgrrrrGgrrGrrrrrrrrrrrr"/>
            <phase duration="30" state="grrrrrgGGgGrgrrrrrgGGgGrGrrrGrrrGr"/>
            <phase duration="10" state="grrGrrgrrrrrgrrrrrgGGgGGrrrrGrrrGr"/>
            <phase duration="10" state="grrrrrgGGgGGgrrGrrgrrrrrGrrrrrrrGr"/>
            <phase duration="10" state="grrGrrgrrrrGgrrGrrgrrrrGrrrrrrrrGr"/>
            <phase duration="10" state="gGGrrrgGGrrrgGGrrrgGGrrrGGGGGGGGGG"/>
            <phase duration="8" state="grryyrgrrrrrgrryyrgrrrrrrrrrrrrrrr"/>
            <phase duration="8" state="grryyygrryrrgrrrrrgrrrrrrrrrrrrrrr"/>
            <phase duration="8" state="grrrrrgrrrrrgrryyygrryrrrrrrrrrrrr"/>
            <phase duration="8" state="grrrrygrryrrgrrrrygrryrrrrrrrrrrrr"/>
            <phase duration="8" state="grrrrrgrryyrgrrrrrgrryyrrrrrrrrrrr"/>
            <phase duration="8" state="grryrrgrrrrrgrrrrrgrryyyrrrrrrrrrr"/>
            <phase duration="8" state="grrrrrgrryyygrryrrgrrrrrrrrrrrrrrr"/>
            <phase duration="8" state="grryrrgrrrrygrryrrgrrrryrrrrrrrrrr"/>
            <phase duration="20" state="rrrrrrrrrrrrrrrrrrrrrrrrrrrrrrrrrr"/>
            <phase duration="30" state="gGGgGrgrrrrrgGGgGrgrrrrrrrrrrrGrrG"/>
            <phase duration="10" state="gGGgGGgrrGrrgrrrrrgrrrrrrrrrrrrrrG"/>
            <phase duration="10" state="grrrrrgrrrrrgGGgGGgrrGrrrrrrrrGrrr"/>
            <phase duration="10" state="grrrrGgrrGrrgrrrrGgrrGrrrrrrrrrrrr"/>
            <phase duration="30" state="grrrrrgGGgGrgrrrrrgGGgGrrrrrrrrrGr"/>
            <phase duration="10" state="grrGrrgrrrrrgrrrrrgGGgGGrrrrrrrrGr"/>
            <phase duration="10" state="grrrrrgGGgGGgrrGrrgrrrrrrrrrrrrrGr"/>
            <phase duration="10" state="grrGrrgrrrrGgrrGrrgrrrrGrrrrrrrrGr"/>
            <phase duration="10" state="rrrrrrrrrrrrrrrrrrrrrrrrrrrrrrrrrr"/>
            <phase duration="8" state="gGGrGrgrrrrrgGGrGrgrrrrrrrGrrGGrrG"/>
            <phase duration="8" state="gGGrGGgrrGrrgrrrrrgrrrrrrrrrrGrrrG"/>
            <phase duration="8" state="grrrrrgrrrrrgGGrGGgrrGrrrrGrrrGrrr"/>
            <phase duration="8" state="grrrrGgrrGrrgrrrrGgrrGrrrrrrrrrrrr"/>
            <phase duration="8" state="grrrrrgGGrGrgrrrrrgGGrGrGrrrGrrrGr"/>
            <phase duration="8" state="grrGrrgrrrrrgrrrrrgGGrGGrrrrGrrrGr"/>
            <phase duration="8" state="grrrrrgGGrGGgrrGrrgrrrrrGrrrrrrrGr"/>
            <phase duration="8" state="grrGrrgrrrrGgrrGrrgrrrrGrrrrrrrrGr"/>
            <phase duration="20" state="rrrrrrrrrrrrrrrrrrrrrrrrrrrrrrrrrr"/>
                
   </tlLogic>
</additional>
