<additional>
   <tlLogic id="1" type="static" programID="my_program" offset="15">

                <phase duration="30" state="gGGrrrrrgGGrrrrrrGrGrr"/>
                <phase duration="10" state="gGGGgrrrrrrrrrrrrrrGrr"/>
                <phase duration="10" state="rrrrrrrrgGGGgrrrrGrrrr"/>
                <phase duration="10" state="rrrGgrrrrrrGgrrrrrrrrr"/>
                <phase duration="30" state="rrrrgGGrrrrrgGGrGrGrrr"/>
                <phase duration="10" state="grrrrrrrrrrrgGGGrrGrrr"/>
                <phase duration="10" state="rrrrgGGGgrrrrrrrGrrrrr"/>
                <phase duration="10" state="grrrrrrGgrrrrrrGrrrrrr"/>
                <phase duration="10" state="rrrrrrrrrrrrrrrrGGGGGG"/>
                <phase duration="8" state="yyyrrrrryyyrrrrrrrrrrr"/>
                <phase duration="8" state="yyyyrrrrrrrrrrrrrrrrrr"/>
                <phase duration="8" state="rrrrrrrryyyyyrrrrrrrrr"/>
                <phase duration="8" state="rrryyrrrrrryyrrrrrrrrr"/>
                <phase duration="8" state="rrrryyyrrrrryyyrrrrrrr"/>
                <phase duration="8" state="yrrrrrrrrrrryyyyrrrrrr"/>
                <phase duration="8" state="rrrryyyyyrrrrrrrrrrrrr"/>
                <phase duration="8" state="yrrrrrryyrrrrrryrrrrrr"/>
                <phase duration="20" state="rrrrrrrrrrrrrrrrrrrrrr"/>
                <phase duration="30" state="gGGrrrrrgGGrrrrrrrrrrr"/>
                <phase duration="10" state="gGGGgrrrrrrrrrrrrrrrrr"/>
                <phase duration="10" state="rrrrrrrrgGGGgrrrrrrrrr"/>
                <phase duration="10" state="rrrGgrrrrrrGgrrrrrrrrr"/>
                <phase duration="30" state="rrrrgGGrrrrrgGGrrrrrrr"/>
                <phase duration="10" state="grrrrrrrrrrrgGGGrrrrrr"/>
                <phase duration="10" state="rrrrgGGGgrrrrrrrrrrrrr"/>
                <phase duration="10" state="grrrrrrGgrrrrrrGrrrrrr"/>
                <phase duration="10" state="rrrrrrrrrrrrrrrrGGGGGG"/>
                <phase duration="8" state="rrrrrrrrrrrrrrrrrGrGrr"/>
                <phase duration="8" state="rrrrrrrrrrrrrrrrrrrGrr"/>
                <phase duration="8" state="rrrrrrrrrrrrrrrrrGrrrr"/>
                <phase duration="8" state="rrrGgrrrrrrGgrrrrrrrrr"/>
                <phase duration="8" state="rrrrrrrrrrrrrrrrGrGrrr"/>
                <phase duration="8" state="rrrrrrrrrrrrrrrrrrGrrr"/>
                <phase duration="8" state="rrrrrrrrrrrrrrrrGrrrrr"/>
                <phase duration="8" state="grrrrrrGgrrrrrrGrrrrrr"/>
                <phase duration="8" state="rrrrrrrrrrrrrrrrGGGGGG"/>
   </tlLogic>
</additional>
